Microsoft (R) COFF/PE Dumper Version 14.29.30137.0
Copyright (C) Microsoft Corporation.  All rights reserved.


Dump of file C:\Windows\WinSxS\amd64_netfx4-mscordbi_dll_b03f5f7f11d50a3a_4.0.15912.0_none_0a61338503ae93be\mscordbi.dll

File Type: DLL

  Image has the following dependencies:

    ole32.dll
    OLEAUT32.dll
    ntdll.dll
    KERNEL32.dll
    USER32.dll
    ADVAPI32.dll
    WTSAPI32.dll

  Section contains the following exports for mscordbi.dll

    00000000 characteristics
    6250A745 time date stamp Fri Apr  8 14:21:09 2022
        0.00 version
           1 ordinal base
           5 number of functions
           5 number of names

    ordinal hint RVA      name

          1    0 000010D0 CreateCordbObject
          2    1 00001100 DllGetClassObjectInternal
          3    2 000016B0 OpenVirtualProcess
          4    3 00001660 OpenVirtualProcess2
          5    4 00001460 OpenVirtualProcessImpl

  Section contains the following imports:

    ole32.dll
             1800FC560 Import Address Table
             18013EFA8 Import Name Table
                     0 time date stamp
                     0 Index of first forwarder reference

                          7C CoTaskMemAlloc
                          7D CoTaskMemFree
                          1C CoCreateGuid
                          9C CreateStreamOnHGlobal
                         12E IIDFromString
                          1B CoCreateFreeThreadedMarshaler

    OLEAUT32.dll
             1800FC4D0 Import Address Table
             18013EF18 Import Name Table
                     0 time date stamp
                     0 Index of first forwarder reference

                             Ordinal     8
                             Ordinal   201
                             Ordinal   202

    ntdll.dll
             1800FC528 Import Address Table
             18013EF70 Import Name Table
                     0 time date stamp
                     0 Index of first forwarder reference

                         5E0 VerSetConditionMask
                         44F RtlLookupFunctionEntry
                         556 RtlVirtualUnwind
                         471 RtlPcToFileHeader
                         53F RtlUnwindEx
                         2B0 RtlCaptureContext

    KERNEL32.dll
             1800FC0B0 Import Address Table
             18013EAF8 Import Name Table
                     0 time date stamp
                     0 Index of first forwarder reference

                         100 CreateThread
                         309 GetThreadContext
                         57E TerminateProcess
                         115 DebugBreak
                         547 SetThreadContext
                          AA ContinueDebugEvent
                         3C5 LoadLibraryExW
                         1BE FreeLibrary
                         40B OpenProcess
                         49B ReleaseMutex
                         45F ReadProcessMemory
                          D6 CreateFileW
                         25B GetFileSize
                          D3 CreateFileMappingW
                         3DE MapViewOfFile
                         5A3 UnmapViewOfFile
                         56E Sleep
                         109 CreateToolhelp32Snapshot
                         58E Thread32First
                         58F Thread32Next
                         3E3 Module32FirstW
                         3E5 Module32NextW
                         283 GetModuleFileNameW
                         5C4 VirtualQueryEx
                         113 DebugActiveProcess
                         5C8 WaitForDebugEvent
                         413 OpenThread
                         22A GetCurrentProcessId
                         395 IsWow64Process
                         60A WriteProcessMemory
                         525 SetLastError
                         440 QueryPerformanceFrequency
                         2FB GetSystemTimeAsFileTime
                         43F QueryPerformanceCounter
                         35A HeapFree
                         356 HeapAlloc
                         2C1 GetProcessHeap
                         44C RaiseException
                         2F5 GetSystemInfo
                         5BA VerifyVersionInfoW
                         418 OutputDebugStringW
                         249 GetEnvironmentVariableW
                         1BD FreeEnvironmentStringsW
                         247 GetEnvironmentStringsW
                         5ED WideCharToMultiByte
                         18A FindClose
                         3EF MultiByteToWideChar
                         22D GetCurrentThread
                         579 SwitchToThread
                         1D3 GetCPInfo
                         1C4 GetACP
                         1BA FormatMessageW
                         384 IsDBCSLeadByte
                         3D0 LocalFree
                         3B4 LCMapStringW
                          EF CreateProcessW
                         4B9 ResumeThread
                         358 HeapCreate
                         593 TlsSetValue
                         5C1 VirtualProtect
                         5BE VirtualFree
                         49F ReleaseSemaphore
                         5BB VirtualAlloc
                          E5 CreateMutexW
                         362 HeapValidate
                         5CC WaitForSingleObjectEx
                         590 TlsAlloc
                         359 HeapDestroy
                          F5 CreateSemaphoreW
                         571 SleepEx
                         592 TlsGetValue
                         591 TlsFree
                         577 SuspendThread
                          BC CreateActCtxW
                           3 ActivateActCtx
                         50A SetErrorMode
                         111 DeactivateActCtx
                         337 GetWindowsDirectoryW
                         499 ReleaseActCtx
                         386 IsDebuggerPresent
                         140 EncodePointer
                         5A0 UnhandledExceptionFilter
                         55F SetUnhandledExceptionFilter
                         38B IsProcessorFeaturePresent
                         372 InitializeSListHead
                         2DE GetStartupInfoW
                         173 ExitProcess
                         286 GetModuleHandleExW
                         282 GetModuleFileNameA
                         2E4 GetStdHandle
                         25E GetFileType
                         2E9 GetStringTypeW
                         1B3 FlushFileBuffers
                         601 WriteFile
                         1FC GetConsoleCP
                         20E GetConsoleMode
                         36F InitializeCriticalSectionAndSpinCount
                         18F FindFirstFileExA
                         19F FindNextFileA
                         390 IsValidCodePage
                         2A7 GetOEMCP
                         1E8 GetCommandLineA
                         1E9 GetCommandLineW
                         53D SetStdHandle
                         518 SetFilePointerEx
                         600 WriteConsoleW
                         35F HeapSize
                         35D HeapReAlloc
                         374 InterlockedFlushSList
                         403 OpenFileMappingW
                         252 GetFileAttributesExW
                         517 SetFilePointer
                         45C ReadFile
                         287 GetModuleHandleW
                         1B4 FlushInstructionCache
                         229 GetCurrentProcess
                         22E GetCurrentThreadId
                         4B2 ResetEvent
                         270 GetLastError
                         50B SetEvent
                          CA CreateEventW
                         36E InitializeCriticalSection
                          8E CloseHandle
                         144 EnterCriticalSection
                         3C0 LeaveCriticalSection
                         5CA WaitForMultipleObjectsEx
                         11F DeleteCriticalSection
                         2BC GetProcAddress
                         5CB WaitForSingleObject
                         13D DuplicateHandle
                         5C3 VirtualQuery

    USER32.dll
             1800FC4F0 Import Address Table
             18013EF38 Import Name Table
                     0 time date stamp
                     0 Index of first forwarder reference

                         233 LoadStringW
                         1B9 GetUserObjectInformationW
                         194 GetProcessWindowStation

    ADVAPI32.dll
             1800FC000 Import Address Table
             18013EA48 Import Name Table
                     0 time date stamp
                     0 Index of first forwarder reference

                         2BC RevertToSelf
                         118 EqualSid
                         16C GetSidSubAuthorityCount
                         16B GetSidSubAuthority
                         2EE SetThreadToken
                          85 CopySid
                         15F GetSecurityDescriptorOwner
                         149 GetKernelObjectSecurity
                         14A GetLengthSid
                         289 RegOpenKeyExW
                         258 RegCloseKey
                         296 RegQueryValueExW
                         123 EventWrite
                          1F AdjustTokenPrivileges
                         212 OpenProcessToken
                         1AD LookupPrivilegeValueW
                         2BB ReportEventW
                         2AB RegisterEventSourceW
                          EB DeregisterEventSource
                         16F GetTokenInformation
                         217 OpenThreadToken

    WTSAPI32.dll
             1800FC510 Import Address Table
             18013EF58 Import Name Table
                     0 time date stamp
                     0 Index of first forwarder reference

                          13 WTSFreeMemory
                           C WTSEnumerateProcessesW

  Summary

        3000 .data
        B000 .pdata
       44000 .rdata
        3000 .reloc
        1000 .rsrc
       FB000 .text
        1000 _RDATA
