Microsoft (R) COFF/PE Dumper Version 14.29.30137.0
Copyright (C) Microsoft Corporation.  All rights reserved.


Dump of file C:\Windows\WinSxS\wow64_microsoft-windows-mfaacenc_31bf3856ad364e35_10.0.22621.1_none_de9489ce1a396bb6\mfAACEnc.dll

File Type: DLL

  Section contains the following exports for mfAACEnc.dll

    00000000 characteristics
    23CC7758 time date stamp
        0.00 version
           1 ordinal base
           2 number of functions
           2 number of names

    ordinal hint RVA      name

          1    0 00078030 DllCanUnloadNow
          2    1 00077F40 DllGetClassObject

  Image has the following dependencies:

    api-ms-win-crt-runtime-l1-1-0.dll
    api-ms-win-crt-private-l1-1-0.dll
    api-ms-win-crt-string-l1-1-0.dll
    api-ms-win-core-libraryloader-l1-2-0.dll
    api-ms-win-core-synch-l1-1-0.dll
    api-ms-win-core-heap-l1-1-0.dll
    api-ms-win-core-errorhandling-l1-1-0.dll
    api-ms-win-core-processthreads-l1-1-0.dll
    api-ms-win-core-localization-l1-2-0.dll
    api-ms-win-core-debug-l1-1-0.dll
    api-ms-win-core-handle-l1-1-0.dll
    api-ms-win-eventing-provider-l1-1-0.dll
    api-ms-win-core-processthreads-l1-1-1.dll
    api-ms-win-core-profile-l1-1-0.dll
    api-ms-win-core-sysinfo-l1-1-0.dll
    api-ms-win-core-interlocked-l1-1-0.dll
    MFPlat.DLL
    api-ms-win-crt-math-l1-1-0.dll
    api-ms-win-crt-time-l1-1-0.dll

  Section contains the following imports:

    api-ms-win-crt-runtime-l1-1-0.dll
              200591C8 Import Address Table
              20059560 Import Name Table
                     0 time date stamp
                     0 Index of first forwarder reference

                   39 _initterm_e
                   1C _controlfp
                   38 _initterm

    api-ms-win-crt-private-l1-1-0.dll
              200590F8 Import Address Table
              20059490 Import Name Table
                     0 time date stamp
                     0 Index of first forwarder reference

                   94 _o___stdio_common_vsprintf
                   96 _o___stdio_common_vsprintf_s
                   98 _o___stdio_common_vswprintf
                   B9 _o__callnewh
                   BB _o__cexit
                   3A _o__CIacos
                   3B _o__CIasin
                   3C _o__CIatan
                   3D _o__CIatan2
                   3E _o__CIcos
                   40 _o__CIexp
                   41 _o__CIfmod
                   42 _o__CIlog
                   43 _o__CIlog10
                   44 _o__CIpow
                   45 _o__CIsin
                   47 _o__CIsqrt
                   48 _o__CItan
                   49 _o__CItanh
                   C8 _o__configure_narrow_argv
                   CF _o__crt_atexit
                   E8 _o__errno
                   EA _o__execute_onexit_table
                  163 _o__initialize_narrow_environment
                  164 _o__initialize_onexit_table
                  166 _o__invalid_parameter_noinfo
                  273 _o__purecall
                  281 _o__register_onexit_function
                  288 _o__seh_filter_dll
                  483 memmove
                  387 _o_calloc
                  38A _o_ceil
                  395 _o_exit
                  39B _o_fclose
                  39D _o_ferror
                  39E _o_fflush
                  3A4 _o_floor
                  3AC _o_fputs
                  3AF _o_fread
                  3B1 _o_free
                  3B8 _o_fwrite
                  3FA _o_malloc
                  41B _o_qsort
                  41E _o_rand
                  445 _o_strncpy_s
                   32 _except_handler4_common
                   88 _o___std_type_info_destroy_list
                  486 strrchr
                   56 _o___acrt_iob_func
                  481 memcmp
                  482 memcpy

    api-ms-win-crt-string-l1-1-0.dll
              200591D8 Import Address Table
              20059570 Import Name Table
                     0 time date stamp
                     0 Index of first forwarder reference

                   83 memset
                   91 strnlen

    api-ms-win-core-libraryloader-l1-2-0.dll
              20059054 Import Address Table
              200593EC Import Name Table
                     0 time date stamp
                     0 Index of first forwarder reference

                   14 GetModuleHandleExW
                    1 DisableThreadLibraryCalls
                    D FreeLibrary
                   16 GetProcAddress
                   10 GetModuleFileNameA
                   15 GetModuleHandleW

    api-ms-win-core-synch-l1-1-0.dll
              200590A4 Import Address Table
              2005943C Import Name Table
                     0 time date stamp
                     0 Index of first forwarder reference

                   21 OpenSemaphoreW
                   37 WaitForSingleObjectEx
                   27 ResetEvent
                   29 SetEvent
                    9 CreateMutexExW
                   23 ReleaseMutex
                   1A InitializeCriticalSectionEx
                   36 WaitForSingleObject
                   18 InitializeCriticalSection
                   1D LeaveCriticalSection
                    F DeleteCriticalSection
                   26 ReleaseSemaphore
                   11 EnterCriticalSection
                   19 InitializeCriticalSectionAndSpinCount
                    6 CreateEventW
                    B CreateSemaphoreExW

    api-ms-win-core-heap-l1-1-0.dll
              2005903C Import Address Table
              200593D4 Import Name Table
                     0 time date stamp
                     0 Index of first forwarder reference

                    2 HeapAlloc
                    6 HeapFree
                    0 GetProcessHeap

    api-ms-win-core-errorhandling-l1-1-0.dll
              20059020 Import Address Table
              200593B8 Import Name Table
                     0 time date stamp
                     0 Index of first forwarder reference

                    F SetUnhandledExceptionFilter
                    D SetLastError
                    5 GetLastError
                   11 UnhandledExceptionFilter

    api-ms-win-core-processthreads-l1-1-0.dll
              20059078 Import Address Table
              20059410 Import Name Table
                     0 time date stamp
                     0 Index of first forwarder reference

                    D GetCurrentProcessId
                    C GetCurrentProcess
                   11 GetCurrentThreadId
                   5A TlsSetValue
                   55 TerminateProcess
                   59 TlsGetValue

    api-ms-win-core-localization-l1-2-0.dll
              20059070 Import Address Table
              20059408 Import Name Table
                     0 time date stamp
                     0 Index of first forwarder reference

                    9 FormatMessageW

    api-ms-win-core-debug-l1-1-0.dll
              20059010 Import Address Table
              200593A8 Import Name Table
                     0 time date stamp
                     0 Index of first forwarder reference

                    5 IsDebuggerPresent
                    4 DebugBreak
                    7 OutputDebugStringW

    api-ms-win-core-handle-l1-1-0.dll
              20059034 Import Address Table
              200593CC Import Name Table
                     0 time date stamp
                     0 Index of first forwarder reference

                    0 CloseHandle

    api-ms-win-eventing-provider-l1-1-0.dll
              200591EC Import Address Table
              20059584 Import Name Table
                     0 time date stamp
                     0 Index of first forwarder reference

                    4 EventSetInformation
                    9 EventWriteTransfer
                    3 EventRegister
                    5 EventUnregister

    api-ms-win-core-processthreads-l1-1-1.dll
              20059094 Import Address Table
              2005942C Import Name Table
                     0 time date stamp
                     0 Index of first forwarder reference

                   32 IsProcessorFeaturePresent

    api-ms-win-core-profile-l1-1-0.dll
              2005909C Import Address Table
              20059434 Import Name Table
                     0 time date stamp
                     0 Index of first forwarder reference

                    0 QueryPerformanceCounter

    api-ms-win-core-sysinfo-l1-1-0.dll
              200590E8 Import Address Table
              20059480 Import Name Table
                     0 time date stamp
                     0 Index of first forwarder reference

                   16 GetSystemTimeAsFileTime

    api-ms-win-core-interlocked-l1-1-0.dll
              2005904C Import Address Table
              200593E4 Import Name Table
                     0 time date stamp
                     0 Index of first forwarder reference

                    0 InitializeSListHead

    MFPlat.DLL
              20059000 Import Address Table
              20059398 Import Name Table
                     0 time date stamp
                     0 Index of first forwarder reference

                   92 MFGetSystemTime
                   81 MFGetCallStackTracingWeakReference
                   46 MFCreateMediaType

    api-ms-win-crt-math-l1-1-0.dll
              200590F0 Import Address Table
              20059488 Import Name Table
                     0 time date stamp
                     0 Index of first forwarder reference

                   53 _isnan

    api-ms-win-crt-time-l1-1-0.dll
              200591E4 Import Address Table
              2005957C Import Name Table
                     0 time date stamp
                     0 Index of first forwarder reference

                   2F _time32

  Summary

       17000 .data
        2000 .idata
        5000 .reloc
        1000 .rsrc
      141000 .text
