Microsoft (R) COFF/PE Dumper Version 14.29.30137.0
Copyright (C) Microsoft Corporation.  All rights reserved.


Dump of file C:\Windows\WinSxS\amd64_microsoft-windows-r..s-regkeys-component_31bf3856ad364e35_10.0.22621.1_none_9123f657fb8d5cd0\rdpudd.dll

File Type: DLL

  Image has the following dependencies:

    WIN32K.SYS
    ntoskrnl.exe

  Section contains the following imports:

    WIN32K.SYS
             1C0019000 Import Address Table
             1C0019248 Import Name Table
                     0 time date stamp
                     0 Index of first forwarder reference

                          1D EngBugCheckEx
                          1B EngAssociateSurface
                          3B EngDeletePalette
                          40 EngDeleteSurface
                          50 EngFreeMem
                          A9 EngUnlockSurface
                          74 EngLockSurface
                          16 EngAllocMem
                          2A EngCreateDeviceSurface
                          27 EngCreateBitmap
                          42 EngDeviceIoControl
                          57 EngGetCurrentThreadId
                          56 EngGetCurrentProcessId
                          2E EngCreatePalette
                          A0 EngStrokePath
                          A2 EngTextOut
                          1C EngBitBlt
                          25 EngCopyBits
                          C7 PATHOBJ_bEnum
                          CE PATHOBJ_vGetBounds
                          CC PATHOBJ_vEnumStart
                         103 XLATEOBJ_iXlate
                          8B EngQueryPerformanceCounter
                           6 CLIPOBJ_cEnumStart
                           5 CLIPOBJ_bEnum
                          8C EngQueryPerformanceFrequency
                          CF RtlAnsiCharToUnicodeChar

    ntoskrnl.exe
             1C00190E0 Import Address Table
             1C0019328 Import Name Table
                     0 time date stamp
                     0 Index of first forwarder reference

                         B70 ZwOpenProcessTokenEx
                         B96 ZwQueryInformationToken
                         B17 ZwClose
                         B73 ZwOpenSection
                         8FB RtlInitializeSid
                         94A RtlMapGenericMask
                         9BF RtlSubAuthoritySid
                         9A9 RtlSetDaclSecurityDescriptor
                         623 MmUnmapViewInSystemSpace
                         375 IoGetFileObjectGenericMapping
                         583 KeWaitForMultipleObjects
                         6CB ObfDereferenceObject
                         B2D ZwCreateSection
                         5FA MmMapViewInSystemSpace
                         8F1 RtlInitUnicodeString
                         36D IoGetDeviceObjectPointer
                         93D RtlLengthSid
                         93B RtlLengthRequiredSid
                         7FD RtlAddAccessAllowedAce
                         559 KeSetEvent
                          BD ExAllocatePool2
                         6BB ObReferenceObjectByHandle
                         74D PsGetCurrentProcessSessionId
                         84F RtlCreateAcl
                          EE ExFreePoolWithTag
                         856 RtlCreateSecurityDescriptor
                         A38 SeExports
                         331 IoCreateSynchronizationEvent
                         B6E ZwOpenProcess
                         944 RtlLookupElementGenericTableAvl

  Summary

        3000 .data
        1000 .idata
        1000 .pdata
        3000 .rdata
        1000 .reloc
        1000 .rsrc
       11000 .text
        1000 GFIDS
        1000 fothk
