Microsoft (R) COFF/PE Dumper Version 14.29.30137.0
Copyright (C) Microsoft Corporation.  All rights reserved.


Dump of file C:\Windows\WinSxS\wow64_microsoft-windows-winml_31bf3856ad364e35_10.0.22621.1_none_cdf86a9e0389ed4d\winml.dll

File Type: DLL

  Section contains the following exports for winml.dll

    00000000 characteristics
    7D6765A7 time date stamp
        0.00 version
           1 ordinal base
           1 number of functions
           1 number of names

    ordinal hint RVA      name

          1    0 00003330 WinMLCreateRuntime

  Image has the following dependencies:

    api-ms-win-crt-runtime-l1-1-0.dll
    api-ms-win-crt-private-l1-1-0.dll
    api-ms-win-crt-string-l1-1-0.dll
    api-ms-win-core-libraryloader-l1-2-0.dll
    api-ms-win-core-processthreads-l1-1-0.dll
    api-ms-win-core-sysinfo-l1-1-0.dll
    api-ms-win-core-profile-l1-1-0.dll
    api-ms-win-eventing-provider-l1-1-0.dll
    api-ms-win-core-synch-l1-1-0.dll
    api-ms-win-core-interlocked-l1-1-0.dll
    api-ms-win-core-debug-l1-1-0.dll
    api-ms-win-core-errorhandling-l1-1-0.dll
    api-ms-win-core-processthreads-l1-1-1.dll

  Section contains the following imports:

    api-ms-win-crt-runtime-l1-1-0.dll
              1000D0CC Import Address Table
              1000D2E0 Import Name Table
                     0 time date stamp
                     0 Index of first forwarder reference

                   39 _initterm_e
                   38 _initterm

    api-ms-win-crt-private-l1-1-0.dll
              1000D068 Import Address Table
              1000D27C Import Name Table
                     0 time date stamp
                     0 Index of first forwarder reference

                   86 _o___std_exception_copy
                   87 _o___std_exception_destroy
                   88 _o___std_type_info_destroy_list
                   B9 _o__callnewh
                   BB _o__cexit
                   C8 _o__configure_narrow_argv
                   CF _o__crt_atexit
                   EA _o__execute_onexit_table
                  163 _o__initialize_narrow_environment
                  164 _o__initialize_onexit_table
                  167 _o__invalid_parameter_noinfo_noreturn
                  273 _o__purecall
                  281 _o__register_onexit_function
                  288 _o__seh_filter_dll
                  3B1 _o_free
                  3FA _o_malloc
                  452 _o_terminate
                   1C __current_exception
                   1D __current_exception_context
                   32 _except_handler4_common
                    1 _CxxThrowException
                   10 __CxxFrameHandler3
                  483 memmove
                  482 memcpy

    api-ms-win-crt-string-l1-1-0.dll
              1000D0D8 Import Address Table
              1000D2EC Import Name Table
                     0 time date stamp
                     0 Index of first forwarder reference

                   83 memset

    api-ms-win-core-libraryloader-l1-2-0.dll
              1000D01C Import Address Table
              1000D230 Import Name Table
                     0 time date stamp
                     0 Index of first forwarder reference

                    B FreeLibrary
                    1 DisableThreadLibraryCalls

    api-ms-win-core-processthreads-l1-1-0.dll
              1000D028 Import Address Table
              1000D23C Import Name Table
                     0 time date stamp
                     0 Index of first forwarder reference

                   11 GetCurrentThreadId
                    D GetCurrentProcessId
                    C GetCurrentProcess
                   4D TerminateProcess

    api-ms-win-core-sysinfo-l1-1-0.dll
              1000D05C Import Address Table
              1000D270 Import Name Table
                     0 time date stamp
                     0 Index of first forwarder reference

                   11 GetSystemInfo
                   14 GetSystemTimeAsFileTime

    api-ms-win-core-profile-l1-1-0.dll
              1000D044 Import Address Table
              1000D258 Import Name Table
                     0 time date stamp
                     0 Index of first forwarder reference

                    1 QueryPerformanceFrequency
                    0 QueryPerformanceCounter

    api-ms-win-eventing-provider-l1-1-0.dll
              1000D0E0 Import Address Table
              1000D2F4 Import Name Table
                     0 time date stamp
                     0 Index of first forwarder reference

                    4 EventSetInformation
                    3 EventRegister
                    5 EventUnregister
                    9 EventWriteTransfer

    api-ms-win-core-synch-l1-1-0.dll
              1000D050 Import Address Table
              1000D264 Import Name Table
                     0 time date stamp
                     0 Index of first forwarder reference

                    F DeleteCriticalSection
                   18 InitializeCriticalSection

    api-ms-win-core-interlocked-l1-1-0.dll
              1000D014 Import Address Table
              1000D228 Import Name Table
                     0 time date stamp
                     0 Index of first forwarder reference

                    0 InitializeSListHead

    api-ms-win-core-debug-l1-1-0.dll
              1000D000 Import Address Table
              1000D214 Import Name Table
                     0 time date stamp
                     0 Index of first forwarder reference

                    5 IsDebuggerPresent

    api-ms-win-core-errorhandling-l1-1-0.dll
              1000D008 Import Address Table
              1000D21C Import Name Table
                     0 time date stamp
                     0 Index of first forwarder reference

                   11 UnhandledExceptionFilter
                    F SetUnhandledExceptionFilter

    api-ms-win-core-processthreads-l1-1-1.dll
              1000D03C Import Address Table
              1000D250 Import Name Table
                     0 time date stamp
                     0 Index of first forwarder reference

                   2F IsProcessorFeaturePresent

  Summary

        6000 .data
        1000 .idata
        1000 .reloc
        2000 .rsrc
        6000 .text
