Microsoft (R) COFF/PE Dumper Version 14.29.30137.0
Copyright (C) Microsoft Corporation.  All rights reserved.


Dump of file C:\Windows\WinSxS\wow64_custommarshalers_b03f5f7f11d50a3a_4.0.15912.0_none_f8f646cf3b58e514\CustomMarshalers.dll

File Type: DLL

  clr Header:

              48 cb
            2.05 runtime version
            6F00 [    DF08] RVA [size] of MetaData Directory
              18 flags
                   Strong Name Signed
                   Native Entry Point
            372C entry point (1000372C)
            66CC [     728] RVA [size] of Resources Directory
            6E00 [     100] RVA [size] of StrongNameSignature Directory
               0 [       0] RVA [size] of CodeManagerTable Directory
           14E48 [     260] RVA [size] of VTableFixups Directory
               0 [       0] RVA [size] of ExportAddressTableJumps Directory
               0 [       0] RVA [size] of ManagedNativeHeader Directory


  Image has the following dependencies:

    VCRUNTIME140_CLR0400.dll
    ucrtbase_clr0400.dll
    KERNEL32.dll
    OLEAUT32.dll
    mscoree.dll

  Section contains the following imports:

    VCRUNTIME140_CLR0400.dll
              1000604C Import Address Table
              100155A8 Import Name Table
                     0 time date stamp
                     0 Index of first forwarder reference

                   16 __FrameUnwindFilter
                   48 memset
                   25 __std_type_info_destroy_list
                   1D __current_exception_context
                   1C __current_exception
                   35 _except_handler4_common

    ucrtbase_clr0400.dll
              10006070 Import Address Table
              100155CC Import Name Table
                     0 time date stamp
                     0 Index of first forwarder reference

                   BC _crt_at_quick_exit
                   BD _crt_atexit
                   E0 _execute_onexit_table
                  2AA _register_onexit_function
                  166 _initialize_onexit_table
                   A1 _cexit
                   B1 _configure_narrow_argv
                  3C3 abort
                  2B6 _seh_filter_dll
                  169 _initterm_e
                  168 _initterm
                  526 terminate
                  165 _initialize_narrow_environment

    KERNEL32.dll
              10006000 Import Address Table
              1001555C Import Name Table
                     0 time date stamp
                     0 Index of first forwarder reference

                  228 GetCurrentThreadId
                  12E DisableThreadLibraryCalls
                  2F4 GetSystemTimeAsFileTime
                  224 GetCurrentProcessId
                  43C QueryPerformanceCounter
                  55F Sleep
                  383 IsDebuggerPresent
                  590 UnhandledExceptionFilter
                  550 SetUnhandledExceptionFilter
                  2D7 GetStartupInfoW
                  388 IsProcessorFeaturePresent
                  56F TerminateProcess
                  223 GetCurrentProcess
                  281 GetModuleHandleW
                  369 InitializeSListHead

    OLEAUT32.dll
              10006040 Import Address Table
              1001559C Import Name Table
                     0 time date stamp
                     0 Index of first forwarder reference

                      Ordinal     9
                      Ordinal     8

    mscoree.dll
              10006068 Import Address Table
              100155C4 Import Name Table
                     0 time date stamp
                     0 Index of first forwarder reference

                   76 _CorDllMain

  Summary

        1000 .data
       10000 .rdata
        1000 .reloc
        1000 .rsrc
        5000 .text
