Microsoft (R) COFF/PE Dumper Version 14.29.30137.0
Copyright (C) Microsoft Corporation.  All rights reserved.


Dump of file C:\Windows\SysWOW64\dllhost.exe

File Type: EXECUTABLE IMAGE

  Image has the following dependencies:

    api-ms-win-crt-runtime-l1-1-0.dll
    api-ms-win-crt-private-l1-1-0.dll
    api-ms-win-crt-string-l1-1-0.dll
    ntdll.dll
    api-ms-win-core-com-private-l1-1-0.dll
    api-ms-win-core-processthreads-l1-1-0.dll
    api-ms-win-core-com-l1-1-0.dll
    api-ms-win-core-heap-l1-1-0.dll
    api-ms-win-core-profile-l1-1-0.dll
    api-ms-win-core-sysinfo-l1-1-0.dll
    api-ms-win-core-interlocked-l1-1-0.dll
    api-ms-win-core-debug-l1-1-0.dll
    api-ms-win-core-errorhandling-l1-1-0.dll
    api-ms-win-core-processthreads-l1-1-1.dll
    api-ms-win-core-libraryloader-l1-2-0.dll

  Section contains the following imports:

    api-ms-win-crt-runtime-l1-1-0.dll
                4040CC Import Address Table
                404304 Import Name Table
                     0 time date stamp
                     0 Index of first forwarder reference

                   16 _c_exit
                   39 _initterm_e
                   3F _register_thread_local_exe_atexit_callback
                   38 _initterm

    api-ms-win-crt-private-l1-1-0.dll
                404074 Import Address Table
                4042AC Import Name Table
                     0 time date stamp
                     0 Index of first forwarder reference

                   7B _o___p__commode
                   BB _o__cexit
                   C7 _o__configthreadlocale
                   C9 _o__configure_wide_argv
                   CA _o__controlfp_s
                   CF _o__crt_atexit
                   EF _o__exit
                  140 _o__get_wide_winmain_command_line
                  164 _o__initialize_onexit_table
                  165 _o__initialize_wide_environment
                  281 _o__register_onexit_function
                  289 _o__seh_filter_exe
                  28B _o__set_app_type
                  28E _o__set_fmode
                  291 _o__set_new_mode
                  2FC _o__wcsicmp
                  395 _o_exit
                  452 _o_terminate
                   1C __current_exception
                   1D __current_exception_context
                   32 _except_handler4_common

    api-ms-win-crt-string-l1-1-0.dll
                4040E0 Import Address Table
                404318 Import Name Table
                     0 time date stamp
                     0 Index of first forwarder reference

                   83 memset

    ntdll.dll
                4040E8 Import Address Table
                404320 Import Name Table
                     0 time date stamp
                     0 Index of first forwarder reference

                  25E NtSetInformationProcess

    api-ms-win-core-com-private-l1-1-0.dll
                404010 Import Address Table
                404248 Import Name Table
                     0 time date stamp
                     0 Index of first forwarder reference

                   1D CoRegisterSurrogateEx

    api-ms-win-core-processthreads-l1-1-0.dll
                404044 Import Address Table
                40427C Import Name Table
                     0 time date stamp
                     0 Index of first forwarder reference

                   55 TerminateProcess
                   11 GetCurrentThreadId
                    D GetCurrentProcessId
                   22 GetStartupInfoW
                    C GetCurrentProcess

    api-ms-win-core-com-l1-1-0.dll
                404000 Import Address Table
                404238 Import Name Table
                     0 time date stamp
                     0 Index of first forwarder reference

                   28 CoInitializeEx
                   46 CoUninitialize
                   4E IIDFromString

    api-ms-win-core-heap-l1-1-0.dll
                40402C Import Address Table
                404264 Import Name Table
                     0 time date stamp
                     0 Index of first forwarder reference

                    A HeapSetInformation

    api-ms-win-core-profile-l1-1-0.dll
                404064 Import Address Table
                40429C Import Name Table
                     0 time date stamp
                     0 Index of first forwarder reference

                    0 QueryPerformanceCounter

    api-ms-win-core-sysinfo-l1-1-0.dll
                40406C Import Address Table
                4042A4 Import Name Table
                     0 time date stamp
                     0 Index of first forwarder reference

                   16 GetSystemTimeAsFileTime

    api-ms-win-core-interlocked-l1-1-0.dll
                404034 Import Address Table
                40426C Import Name Table
                     0 time date stamp
                     0 Index of first forwarder reference

                    0 InitializeSListHead

    api-ms-win-core-debug-l1-1-0.dll
                404018 Import Address Table
                404250 Import Name Table
                     0 time date stamp
                     0 Index of first forwarder reference

                    5 IsDebuggerPresent

    api-ms-win-core-errorhandling-l1-1-0.dll
                404020 Import Address Table
                404258 Import Name Table
                     0 time date stamp
                     0 Index of first forwarder reference

                    F SetUnhandledExceptionFilter
                   11 UnhandledExceptionFilter

    api-ms-win-core-processthreads-l1-1-1.dll
                40405C Import Address Table
                404294 Import Name Table
                     0 time date stamp
                     0 Index of first forwarder reference

                   32 IsProcessorFeaturePresent

    api-ms-win-core-libraryloader-l1-2-0.dll
                40403C Import Address Table
                404274 Import Name Table
                     0 time date stamp
                     0 Index of first forwarder reference

                   15 GetModuleHandleW

  Summary

        1000 .data
        1000 .idata
        1000 .reloc
        1000 .rsrc
        2000 .text
