Microsoft (R) COFF/PE Dumper Version 14.29.30137.0
Copyright (C) Microsoft Corporation.  All rights reserved.


Dump of file C:\Windows\SysWOW64\gpscript.exe

File Type: EXECUTABLE IMAGE

  Image has the following dependencies:

    api-ms-win-core-file-l1-1-0.dll
    api-ms-win-core-registry-l1-1-0.dll
    api-ms-win-core-errorhandling-l1-1-0.dll
    api-ms-win-core-processthreads-l1-1-0.dll
    api-ms-win-core-processenvironment-l1-1-0.dll
    api-ms-win-core-synch-l1-1-0.dll
    api-ms-win-core-heap-l2-1-0.dll
    api-ms-win-core-sysinfo-l1-1-0.dll
    api-ms-win-core-handle-l1-1-0.dll
    api-ms-win-core-libraryloader-l1-2-0.dll
    api-ms-win-core-string-l1-1-0.dll
    api-ms-win-eventing-provider-l1-1-0.dll
    api-ms-win-core-heap-l1-1-0.dll
    USER32.dll
    msvcrt.dll
    ntdll.dll
    api-ms-win-core-debug-l1-1-0.dll
    api-ms-win-security-base-l1-1-0.dll
    api-ms-win-security-sddl-l1-1-0.dll
    api-ms-win-core-synch-l1-2-0.dll
    api-ms-win-core-profile-l1-1-0.dll

  Section contains the following imports:

    api-ms-win-core-file-l1-1-0.dll
                40A028 Import Address Table
                40A3D4 Import Name Table
                     0 time date stamp
                     0 Index of first forwarder reference

                   58 SetFilePointer
                    7 CreateFileW
                   2C GetFileAttributesExW
                    2 CompareFileTime
                    4 CreateDirectoryW
                   5E WriteFile

    api-ms-win-core-registry-l1-1-0.dll
                40A0C4 Import Address Table
                40A470 Import Name Table
                     0 time date stamp
                     0 Index of first forwarder reference

                   25 RegQueryValueExW
                   2E RegSetValueExW
                   21 RegQueryInfoKeyW
                   1C RegOpenCurrentUser
                   1E RegOpenKeyExW
                    0 RegCloseKey

    api-ms-win-core-errorhandling-l1-1-0.dll
                40A014 Import Address Table
                40A3C0 Import Name Table
                     0 time date stamp
                     0 Index of first forwarder reference

                   11 UnhandledExceptionFilter
                    D SetLastError
                    F SetUnhandledExceptionFilter
                    5 GetLastError

    api-ms-win-core-processthreads-l1-1-0.dll
                40A08C Import Address Table
                40A438 Import Name Table
                     0 time date stamp
                     0 Index of first forwarder reference

                   10 GetCurrentThread
                    D GetCurrentProcessId
                   11 GetCurrentThreadId
                   22 GetStartupInfoW
                   36 OpenThreadToken
                   55 TerminateProcess
                   13 GetExitCodeProcess
                    3 CreateProcessW
                    C GetCurrentProcess
                   52 SetThreadToken
                   34 OpenProcessToken

    api-ms-win-core-processenvironment-l1-1-0.dll
                40A078 Import Address Table
                40A424 Import Name Table
                     0 time date stamp
                     0 Index of first forwarder reference

                   12 SetCurrentDirectoryW
                    B GetEnvironmentVariableW
                    1 ExpandEnvironmentStringsW
                   15 SetEnvironmentVariableW

    api-ms-win-core-synch-l1-1-0.dll
                40A0E8 Import Address Table
                40A494 Import Name Table
                     0 time date stamp
                     0 Index of first forwarder reference

                   36 WaitForSingleObject
                   1A InitializeCriticalSectionEx
                    F DeleteCriticalSection

    api-ms-win-core-heap-l2-1-0.dll
                40A058 Import Address Table
                40A404 Import Name Table
                     0 time date stamp
                     0 Index of first forwarder reference

                    3 LocalFree
                    2 LocalAlloc

    api-ms-win-core-sysinfo-l1-1-0.dll
                40A100 Import Address Table
                40A4AC Import Name Table
                     0 time date stamp
                     0 Index of first forwarder reference

                    F GetSystemDirectoryW
                    5 GetLocalTime
                   16 GetSystemTimeAsFileTime
                   13 GetSystemTime
                   1A GetTickCount

    api-ms-win-core-handle-l1-1-0.dll
                40A044 Import Address Table
                40A3F0 Import Name Table
                     0 time date stamp
                     0 Index of first forwarder reference

                    0 CloseHandle
                    2 DuplicateHandle

    api-ms-win-core-libraryloader-l1-2-0.dll
                40A064 Import Address Table
                40A410 Import Name Table
                     0 time date stamp
                     0 Index of first forwarder reference

                   16 GetProcAddress
                   15 GetModuleHandleW
                    D FreeLibrary
                   19 LoadLibraryExW

    api-ms-win-core-string-l1-1-0.dll
                40A0E0 Import Address Table
                40A48C Import Name Table
                     0 time date stamp
                     0 Index of first forwarder reference

                    2 CompareStringW

    api-ms-win-eventing-provider-l1-1-0.dll
                40A118 Import Address Table
                40A4C4 Import Name Table
                     0 time date stamp
                     0 Index of first forwarder reference

                    4 EventSetInformation
                    3 EventRegister
                    5 EventUnregister
                    9 EventWriteTransfer

    api-ms-win-core-heap-l1-1-0.dll
                40A050 Import Address Table
                40A3FC Import Name Table
                     0 time date stamp
                     0 Index of first forwarder reference

                    A HeapSetInformation

    USER32.dll
                40A000 Import Address Table
                40A3AC Import Name Table
                     0 time date stamp
                     0 Index of first forwarder reference

                  1C7 GetSystemMetrics
                  3C7 UpdatePerUserSystemParameters

    msvcrt.dll
                40A144 Import Address Table
                40A4F0 Import Name Table
                     0 time date stamp
                     0 Index of first forwarder reference

                   80 __CxxFrameHandler3
                  251 _itow
                  3F7 _vsnwprintf
                   3A ?terminate@@YAXXZ
                  514 memcpy
                  1F3 _initterm
                   ED __setusermatherr
                  140 _controlfp
                   9B __argc
                  12B _callnewh
                   D7 __p__fmode
                   13 ??3@YAXPAX@Z
                  17C _exit
                    9 ??0exception@@QAE@ABQBD@Z
                   A5 __dllonexit
                  314 _onexit
                    A ??0exception@@QAE@ABQBDH@Z
                  4B9 exit
                   EB __set_app_type
                  508 malloc
                   FA __wgetmainargs
                  11A _amsg_exit
                   D2 __p__commode
                  173 _except_handler4_common
                   74 _XcptFilter
                    B ??0exception@@QAE@ABV0@@Z
                   11 ??1type_info@@UAE@XZ
                  325 _purecall
                   F6 __wargv
                  12D _cexit
                   10 ??1exception@@UAE@XZ
                   69 _CxxThrowException
                  3CF _unlock
                   3C ?what@exception@@UBEPBDXZ
                  26B _lock
                  518 memset
                  516 memmove
                  410 _wcmdln

    ntdll.dll
                40A1E0 Import Address Table
                40A58C Import Name Table
                     0 time date stamp
                     0 Index of first forwarder reference

                  4DD RtlLengthSid
                  343 RtlCopySid

    api-ms-win-core-debug-l1-1-0.dll
                40A00C Import Address Table
                40A3B8 Import Name Table
                     0 time date stamp
                     0 Index of first forwarder reference

                    7 OutputDebugStringW

    api-ms-win-security-base-l1-1-0.dll
                40A12C Import Address Table
                40A4D8 Import Name Table
                     0 time date stamp
                     0 Index of first forwarder reference

                   42 GetTokenInformation
                   2C EqualSid
                   45 ImpersonateLoggedOnUser

    api-ms-win-security-sddl-l1-1-0.dll
                40A13C Import Address Table
                40A4E8 Import Name Table
                     0 time date stamp
                     0 Index of first forwarder reference

                    1 ConvertSidToStringSidW

    api-ms-win-core-synch-l1-2-0.dll
                40A0F8 Import Address Table
                40A4A4 Import Name Table
                     0 time date stamp
                     0 Index of first forwarder reference

                   2D Sleep

    api-ms-win-core-profile-l1-1-0.dll
                40A0BC Import Address Table
                40A468 Import Name Table
                     0 time date stamp
                     0 Index of first forwarder reference

                    0 QueryPerformanceCounter

  Summary

        2000 .data
        1000 .idata
        1000 .reloc
        1000 .rsrc
        7000 .text
