Microsoft (R) COFF/PE Dumper Version 14.29.30137.0
Copyright (C) Microsoft Corporation.  All rights reserved.


Dump of file C:\Windows\SysWOW64\photowiz.dll

File Type: DLL

  Section contains the following exports for PHOTOWIZ.dll

    00000000 characteristics
    D4558F87 time date stamp
        0.00 version
           1 ordinal base
           7 number of functions
           7 number of names

    ordinal hint RVA      name

          2    0 000045C0 DllCanUnloadNow
          3    1 00004820 DllGetClassObject
          4    2 000045B0 DllInstall
          5    3 00004520 DllMain
          6    4 00004600 DllRegisterServer
          7    5 000045E0 DllUnregisterServer
          1    6 000048C0 UsePPWForPrintTo

  Image has the following dependencies:

    api-ms-win-crt-runtime-l1-1-0.dll
    api-ms-win-crt-private-l1-1-0.dll
    api-ms-win-crt-string-l1-1-0.dll
    ATL.DLL
    ADVAPI32.dll
    GDI32.dll
    gdiplus.dll
    KERNEL32.dll
    ole32.dll
    OLEAUT32.dll
    SHELL32.dll
    SHLWAPI.dll
    USER32.dll
    WINSPOOL.DRV
    urlmon.dll
    prntvpt.dll
    ntdll.dll
    mscms.dll
    UxTheme.dll

  Section contains the following imports:

    api-ms-win-crt-runtime-l1-1-0.dll
              10030448 Import Address Table
              10030B8C Import Name Table
                     0 time date stamp
                     0 Index of first forwarder reference

                   39 _initterm_e
                   38 _initterm

    api-ms-win-crt-private-l1-1-0.dll
              100303B4 Import Address Table
              10030AF8 Import Name Table
                     0 time date stamp
                     0 Index of first forwarder reference

                  163 _o__initialize_narrow_environment
                  164 _o__initialize_onexit_table
                  166 _o__invalid_parameter_noinfo
                  281 _o__register_onexit_function
                  288 _o__seh_filter_dll
                  2FC _o__wcsicmp
                  483 memmove
                  3B1 _o_free
                  3D5 _o_iswdigit
                  420 _o_realloc
                  440 _o_strcpy_s
                  452 _o_terminate
                  45B _o_towupper
                  46B _o_wcstok
                  46D _o_wcstol
                   1C __current_exception
                   1D __current_exception_context
                   32 _except_handler4_common
                   EA _o__execute_onexit_table
                   E8 _o__errno
                   CF _o__crt_atexit
                   C8 _o__configure_narrow_argv
                   47 _o__CIsqrt
                   45 _o__CIsin
                   44 _o__CIpow
                   3E _o__CIcos
                   BB _o__cexit
                   98 _o___stdio_common_vswprintf
                   94 _o___stdio_common_vsprintf
                   88 _o___std_type_info_destroy_list
                   26 __std_terminate
                   10 __CxxFrameHandler3
                    1 _CxxThrowException
                  481 memcmp
                  482 memcpy
                  489 wcschr

    api-ms-win-crt-string-l1-1-0.dll
              10030454 Import Address Table
              10030B98 Import Name Table
                     0 time date stamp
                     0 Index of first forwarder reference

                   83 memset

    ATL.DLL
              1003003C Import Address Table
              10030780 Import Name Table
                     0 time date stamp
                     0 Index of first forwarder reference

                      Ordinal    30
                      Ordinal    18
                      Ordinal    57
                      Ordinal    21
                      Ordinal    43
                      Ordinal    44
                      Ordinal    16

    ADVAPI32.dll
              10030000 Import Address Table
              10030744 Import Name Table
                     0 time date stamp
                     0 Index of first forwarder reference

                  28F RegQueryValueExW
                  273 RegEnumValueW
                  282 RegOpenKeyExW
                  29F RegSetValueExW
                  289 RegQueryInfoKeyW
                  265 RegDeleteKeyW
                  32B UnregisterTraceGuids
                  2AB RegisterTraceGuidsW
                  15C GetTraceEnableFlags
                  25A RegCreateKeyExW
                  31C TraceEvent
                  15E GetTraceLoggerHandle
                  15D GetTraceEnableLevel
                  251 RegCloseKey

    GDI32.dll
              1003005C Import Address Table
              100307A0 Import Name Table
                     0 time date stamp
                     0 Index of first forwarder reference

                  3A3 SetTextColor
                  18F DeleteObject
                  374 SelectObject
                  30D MoveToEx
                  2F9 LineTo
                   34 CreateDCW
                  28B GetDeviceCaps
                  1DE ExtEscape
                  38B SetICMMode
                  2A9 GetICMProfileW
                  3AD StartDocW
                  376 SetAbortProc
                  3AF StartPage
                  19C EndPage
                    0 AbortDoc
                  199 EndDoc
                   31 CreateCompatibleDC
                  3B0 StretchBlt
                   37 CreateDIBSection
                  2E7 GetTextMetricsW
                  2BB GetObjectA
                  1DB ExcludeClipRect
                  18C DeleteDC
                  264 GetBkColor
                   4F CreatePen
                  2DF GetTextExtentPoint32W

    gdiplus.dll
              1003045C Import Address Table
              10030BA0 Import Name Table
                     0 time date stamp
                     0 Index of first forwarder reference

                  1B5 GdipLoadImageFromFile
                   ED GdipFree
                   21 GdipAlloc
                   36 GdipCloneImage
                   98 GdipDisposeImage
                  198 GdipImageGetFrameCount
                   5B GdipCreateFromHDC
                   50 GdipCreateBitmapFromScan0
                  121 GdipGetImageGraphicsContext
                   90 GdipDeleteGraphics
                  1EC GdipRotateWorldTransform
                  26C GdipTranslateWorldTransform
                  12C GdipGetImageWidth
                  122 GdipGetImageHeight
                   82 GdipCreateSolidFill
                   8A GdipDeleteBrush
                   32 GdipCloneBrush
                   E5 GdipFillRectangleI
                   B0 GdipDrawImageI
                   6A GdipCreateMatrix
                   91 GdipDeleteMatrix
                   2E GdipBitmapUnlockBits
                   2B GdipBitmapLockBits
                  24D GdipSetStringFormatFlags
                  252 GdipSetStringFormatTrimming
                  254 GdipSetTextRenderingHint
                   B8 GdipDrawImageRectI
                   51 GdipCreateBitmapFromStream
                  249 GdipSetSmoothingMode
                  218 GdipSetInterpolationMode
                   56 GdipCreateFont
                   8F GdipDeleteFontFamily
                   57 GdipCreateFontFamilyFromName
                   3C GdipCloneStringFormat
                  239 GdipSetPenDashArray
                   5F GdipCreateHBITMAPFromBitmap
                  274 GdiplusShutdown
                  275 GdiplusStartup
                   4D GdipCreateBitmapFromHBITMAP
                  195 GdipGraphicsClear
                  223 GdipSetPageScale
                  224 GdipSetPageUnit
                   C8 GdipDrawString
                  257 GdipSetWorldTransform
                   7A GdipCreatePen1
                   94 GdipDeletePen
                   C5 GdipDrawRectangleI
                  24B GdipSetStringFormatAlign
                   97 GdipDeleteStringFormat
                   84 GdipCreateStringFormat
                  10D GdipGetFontHeight
                   8E GdipDeleteFont
                   59 GdipCreateFontFromLogfontA
                   58 GdipCreateFontFromDC

    KERNEL32.dll
              100300C8 Import Address Table
              1003080C Import Name Table
                     0 time date stamp
                     0 Index of first forwarder reference

                  1C3 FreeResource
                  3FB LockResource
                  3E7 LoadResource
                  3EA LocalAlloc
                  3EF LocalFree
                  130 DisableThreadLibraryCalls
                  555 SetLastError
                  28C GetModuleHandleA
                  28F GetModuleHandleW
                  2C6 GetProcAddress
                  277 GetLastError
                  3E4 LoadLibraryW
                  28B GetModuleFileNameW
                  436 OutputDebugStringA
                  5F6 VirtualQuery
                  145 EnterCriticalSection
                  37C InitializeCriticalSection
                  3DD LeaveCriticalSection
                  40F MultiByteToWideChar
                  122 DeleteCriticalSection
                   CE CreateEventW
                  104 CreateThread
                  584 SetThreadPriority
                  4EF ResumeThread
                  5FF WaitForSingleObject
                  538 SetEvent
                   94 CloseHandle
                  1C0 FreeLibraryAndExitThread
                  231 GetCurrentThreadId
                  22D GetCurrentProcessId
                  301 GetSystemTime
                  5B0 SystemTimeToFileTime
                  1AA FindResourceW
                  3E1 LoadLibraryA
                  23D GetDiskFreeSpaceExW
                  65B lstrcmpiW
                   AA CompareStringW
                  658 lstrcmpW
                  664 lstrlenW
                   A9 CompareStringOrdinal
                  252 GetExitCodeThread
                  5A3 SizeofResource
                  5A4 Sleep
                  39D IsDebuggerPresent
                  381 InitializeSListHead
                  303 GetSystemTimeAsFileTime
                  46D QueryPerformanceCounter
                  600 WaitForSingleObjectEx
                  4E8 ResetEvent
                  37D InitializeCriticalSectionAndSpinCount
                  5B4 TerminateProcess
                  594 SetUnhandledExceptionFilter
                  5D5 UnhandledExceptionFilter
                  38C InterlockedPopEntrySList
                  38D InterlockedPushEntrySList
                  1B4 FlushInstructionCache
                  2CD GetProcessHeap
                  3A5 IsProcessorFeaturePresent
                  11B DecodePointer
                  363 HeapAlloc
                  141 EncodePointer
                  3E2 LoadLibraryExA
                  5EE VirtualAlloc
                  22C GetCurrentProcess
                  5F1 VirtualFree
                  367 HeapFree
                  1BF FreeLibrary
                  3E3 LoadLibraryExW
                  35D GlobalUnlock
                  5AD SuspendThread
                  483 RaiseException
                  1BB FormatMessageW
                  5FD WaitForMultipleObjects
                  27B GetLocaleInfoW
                  356 GlobalLock

    ole32.dll
              10030550 Import Address Table
              10030C94 Import Name Table
                     0 time date stamp
                     0 Index of first forwarder reference

                   28 CoCreateInstance
                  195 PropVariantClear
                   4D CoGetInterfaceAndReleaseStream
                   89 CoTaskMemFree
                   A9 CreateStreamOnHGlobal
                   BE GetHGlobalFromStream
                    C CLSIDFromString
                   5E CoInitializeEx
                   5D CoInitialize
                   68 CoMarshalInterThreadInterfaceInStream
                   8E CoUninitialize

    OLEAUT32.dll
              100301F8 Import Address Table
              1003093C Import Name Table
                     0 time date stamp
                     0 Index of first forwarder reference

                      Ordinal     6
                      Ordinal     9
                      Ordinal     2
                      Ordinal     7
                      Ordinal     4
                      Ordinal    12
                      Ordinal     8

    SHELL32.dll
              10030218 Import Address Table
              1003095C Import Name Table
                     0 time date stamp
                     0 Index of first forwarder reference

                      Ordinal   155
                   A1 SHCreateItemFromParsingName
                  16C SHGetSpecialFolderLocation
                  16E SHGetSpecialFolderPathW
                  150 SHGetFolderPathW
                  1B0 ShellExecuteW
                      Ordinal    18
                  14A SHGetFileInfoW
                      Ordinal   740
                      Ordinal   754
                  164 SHGetPathFromIDListW

    SHLWAPI.dll
              10030248 Import Address Table
              1003098C Import Name Table
                     0 time date stamp
                     0 Index of first forwarder reference

                  12D StrCmpW
                      Ordinal   158
                      Ordinal    12
                   4B PathFindExtensionW
                      Ordinal   219
                  14A StrRetToStrW
                      Ordinal    16

    USER32.dll
              10030268 Import Address Table
              100309AC Import Name Table
                     0 time date stamp
                     0 Index of first forwarder reference

                   B5 DestroyWindow
                  317 SendMessageW
                  110 FillRect
                  1C3 GetSysColor
                  28D MoveWindow
                  220 InvalidateRect
                  38E ShowWindow
                  24D KillTimer
                   11 BeginPaint
                   F4 EndPaint
                   76 CreateWindowExW
                  36C SetTimer
                   A7 DefWindowProcW
                  34D SetParent
                  287 MessageBoxW
                  251 LoadBitmapW
                  2A6 PeekMessageW
                  1EE GetWindowRect
                  131 GetClientRect
                  2FB ReleaseDC
                  190 GetParent
                  141 GetDC
                  2AD PostThreadMessageW
                  2AA PostMessageW
                  244 IsWindow
                  264 LoadStringW
                  3B9 UnregisterClassW
                  378 SetWindowLongW
                  1E7 GetWindowLongW
                  12F GetClassNameW
                  3AE TranslateMessage
                  18B GetMonitorInfoW
                  28E MsgWaitForMultipleObjects
                  28C MonitorFromWindow
                   21 CallWindowProcW
                  125 GetCapture
                  14B GetDlgCtrlID
                  39E SystemParametersInfoW
                  3C8 UpdateWindow
                  2B4 PtInRect
                   4D ClientToScreen
                  2FA ReleaseCapture
                  31C SetCapture
                   D2 DrawFocusRect
                  1C7 GetSystemMetrics
                  208 InflateRect
                   D1 DrawEdge
                  246 IsWindowEnabled
                  37A SetWindowPos
                  177 GetMenu
                    4 AdjustWindowRectEx
                  14C GetDlgItem
                  30E SendDlgItemMessageW
                  27B MapWindowPoints
                   5B CopyRect
                  11A GetActiveWindow
                  157 GetFocus
                   EF EnableWindow
                  335 SetFocus
                  332 SetDlgItemTextW
                  24A IsWindowVisible
                  11E GetAncestor
                  14D GetDlgItemInt
                  330 SetDlgItemInt
                   BA DialogBoxParamW
                   BD DispatchMessageW
                  37F SetWindowTextW
                  21F IntersectRect
                  297 OffsetRect
                  1DB GetWindow
                   F2 EndDialog
                  2DB RegisterClassExW
                  189 GetMessageW

    WINSPOOL.DRV
              10030398 Import Address Table
              10030ADC Import Name Table
                     0 time date stamp
                     0 Index of first forwarder reference

                   4F DocumentPropertiesW
                      Ordinal   203
                   1D ClosePrinter
                   8D GetPrinterW
                   96 OpenPrinterW
                   6A EnumPrintersW

    urlmon.dll
              100305A0 Import Address Table
              10030CE4 Import Name Table
                     0 time date stamp
                     0 Index of first forwarder reference

                   77 URLOpenBlockingStreamW
                   1C CoInternetParseUrl

    prntvpt.dll
              10030580 Import Address Table
              10030CC4 Import Name Table
                     0 time date stamp
                     0 Index of first forwarder reference

                      Ordinal     8
                      Ordinal     7
                      Ordinal     6
                      Ordinal     2
                      Ordinal    10
                      Ordinal     4
                      Ordinal     9

    ntdll.dll
              10030540 Import Address Table
              10030C84 Import Name Table
                     0 time date stamp
                     0 Index of first forwarder reference

                  6D0 WinSqmIsOptedIn
                  6BF WinSqmAddToStream
                  6CF WinSqmIncrementDWORD

    mscms.dll
              10030538 Import Address Table
              10030C7C Import Name Table
                     0 time date stamp
                     0 Index of first forwarder reference

                   3D GetStandardColorSpaceProfileW

    UxTheme.dll
              10030390 Import Address Table
              10030AD4 Import Name Table
                     0 time date stamp
                     0 Index of first forwarder reference

                   51 SetWindowTheme

  Summary

        1000 .data
        3000 .idata
        3000 .reloc
       14000 .rsrc
       2E000 .text
