Microsoft (R) COFF/PE Dumper Version 14.29.30137.0
Copyright (C) Microsoft Corporation.  All rights reserved.


Dump of file C:\Windows\SysWOW64\tvratings.dll

File Type: DLL

  Section contains the following exports for TvRatings.DLL

    00000000 characteristics
    A42954F8 time date stamp
        0.00 version
           1 ordinal base
           4 number of functions
           4 number of names

    ordinal hint RVA      name

          1    0 00005BB0 DllCanUnloadNow
          2    1 00005BD0 DllGetClassObject
          3    2 00005BF0 DllRegisterServer
          4    3 00005C00 DllUnregisterServer

  Image has the following dependencies:

    api-ms-win-crt-string-l1-1-0.dll
    api-ms-win-crt-runtime-l1-1-0.dll
    api-ms-win-crt-private-l1-1-0.dll
    KERNEL32.dll
    USER32.dll
    ADVAPI32.dll
    ole32.dll
    OLEAUT32.dll

  Section contains the following imports:

    api-ms-win-crt-string-l1-1-0.dll
              1000B148 Import Address Table
              1000B36C Import Name Table
                     0 time date stamp
                     0 Index of first forwarder reference

                   83 memset

    api-ms-win-crt-runtime-l1-1-0.dll
              1000B13C Import Address Table
              1000B360 Import Name Table
                     0 time date stamp
                     0 Index of first forwarder reference

                   39 _initterm_e
                   38 _initterm

    api-ms-win-crt-private-l1-1-0.dll
              1000B0C8 Import Address Table
              1000B2EC Import Name Table
                     0 time date stamp
                     0 Index of first forwarder reference

                   B9 _o__callnewh
                   BB _o__cexit
                   C8 _o__configure_narrow_argv
                   CF _o__crt_atexit
                   E8 _o__errno
                   EA _o__execute_onexit_table
                  163 _o__initialize_narrow_environment
                  164 _o__initialize_onexit_table
                  166 _o__invalid_parameter_noinfo
                  273 _o__purecall
                  482 memcpy
                  281 _o__register_onexit_function
                  288 _o__seh_filter_dll
                   88 _o___std_type_info_destroy_list
                  3B1 _o_free
                  3FA _o_malloc
                  452 _o_terminate
                  460 _o_wcscat_s
                  463 _o_wcscpy_s
                  466 _o_wcsncpy_s
                   1C __current_exception
                   1D __current_exception_context
                   32 _except_handler4_common
                   26 __std_terminate
                   10 __CxxFrameHandler3
                    1 _CxxThrowException
                  481 memcmp
                  280 _o__recalloc

    KERNEL32.dll
              1000B020 Import Address Table
              1000B244 Import Name Table
                     0 time date stamp
                     0 Index of first forwarder reference

                  122 DeleteCriticalSection
                  37C InitializeCriticalSection
                  3DD LeaveCriticalSection
                  5A3 SizeofResource
                  28B GetModuleFileNameW
                  39D IsDebuggerPresent
                  381 InitializeSListHead
                  303 GetSystemTimeAsFileTime
                  231 GetCurrentThreadId
                  22D GetCurrentProcessId
                  46D QueryPerformanceCounter
                  3A5 IsProcessorFeaturePresent
                  5B4 TerminateProcess
                  22C GetCurrentProcess
                  594 SetUnhandledExceptionFilter
                  5D5 UnhandledExceptionFilter
                  145 EnterCriticalSection
                  325 GetTickCount
                  3E3 LoadLibraryExW
                  65B lstrcmpiW
                  1BF FreeLibrary
                  28F GetModuleHandleW
                  2C6 GetProcAddress
                  3E7 LoadResource
                  1A9 FindResourceExW
                  483 RaiseException
                  130 DisableThreadLibraryCalls
                  277 GetLastError
                  40F MultiByteToWideChar

    USER32.dll
              1000B0BC Import Address Table
              1000B2E0 Import Name Table
                     0 time date stamp
                     0 Index of first forwarder reference

                  3B8 UnregisterClassA
                   34 CharNextW

    ADVAPI32.dll
              1000B000 Import Address Table
              1000B224 Import Name Table
                     0 time date stamp
                     0 Index of first forwarder reference

                  251 RegCloseKey
                  282 RegOpenKeyExW
                  29F RegSetValueExW
                  270 RegEnumKeyExW
                  25A RegCreateKeyExW
                  289 RegQueryInfoKeyW
                  269 RegDeleteValueW

    ole32.dll
              1000B150 Import Address Table
              1000B374 Import Name Table
                     0 time date stamp
                     0 Index of first forwarder reference

                  1CB StringFromGUID2
                   28 CoCreateInstance
                   89 CoTaskMemFree
                   8A CoTaskMemRealloc
                   88 CoTaskMemAlloc

    OLEAUT32.dll
              1000B098 Import Address Table
              1000B2BC Import Name Table
                     0 time date stamp
                     0 Index of first forwarder reference

                      Ordinal   186
                      Ordinal     2
                      Ordinal     7
                      Ordinal     6
                      Ordinal   162
                      Ordinal   163
                      Ordinal   161
                      Ordinal   277

  Summary

        1000 .data
        1000 .idata
        1000 .reloc
        3000 .rsrc
        9000 .text
