Microsoft (R) COFF/PE Dumper Version 14.29.30137.0
Copyright (C) Microsoft Corporation.  All rights reserved.


Dump of file C:\Windows\SysWOW64\Windows.Media.BackgroundPlayback.exe

File Type: EXECUTABLE IMAGE

  Image has the following dependencies:

    api-ms-win-crt-runtime-l1-1-0.dll
    api-ms-win-crt-private-l1-1-0.dll
    api-ms-win-crt-string-l1-1-0.dll
    api-ms-win-eventing-provider-l1-1-0.dll
    api-ms-win-eventing-classicprovider-l1-1-0.dll
    api-ms-win-core-winrt-string-l1-1-0.dll
    api-ms-win-core-winrt-l1-1-0.dll
    api-ms-win-core-errorhandling-l1-1-0.dll
    api-ms-win-core-profile-l1-1-0.dll
    api-ms-win-core-processthreads-l1-1-0.dll
    api-ms-win-core-sysinfo-l1-1-0.dll
    api-ms-win-core-interlocked-l1-1-0.dll
    api-ms-win-core-debug-l1-1-0.dll
    api-ms-win-core-processthreads-l1-1-1.dll
    api-ms-win-core-libraryloader-l1-2-0.dll

  Section contains the following imports:

    api-ms-win-crt-runtime-l1-1-0.dll
                4040CC Import Address Table
                404328 Import Name Table
                     0 time date stamp
                     0 Index of first forwarder reference

                   3F _register_thread_local_exe_atexit_callback
                   38 _initterm
                   16 _c_exit
                   39 _initterm_e

    api-ms-win-crt-private-l1-1-0.dll
                404070 Import Address Table
                4042CC Import Name Table
                     0 time date stamp
                     0 Index of first forwarder reference

                   77 _o___p___argc
                   79 _o___p___wargv
                   7B _o___p__commode
                   BB _o__cexit
                   C7 _o__configthreadlocale
                   C9 _o__configure_wide_argv
                   CA _o__controlfp_s
                   CF _o__crt_atexit
                   EF _o__exit
                  136 _o__get_initial_wide_environment
                  164 _o__initialize_onexit_table
                  165 _o__initialize_wide_environment
                  281 _o__register_onexit_function
                  289 _o__seh_filter_exe
                  28B _o__set_app_type
                  28E _o__set_fmode
                  291 _o__set_new_mode
                  395 _o_exit
                  452 _o_terminate
                   1C __current_exception
                   1D __current_exception_context
                   32 _except_handler4_common

    api-ms-win-crt-string-l1-1-0.dll
                4040E0 Import Address Table
                40433C Import Name Table
                     0 time date stamp
                     0 Index of first forwarder reference

                   83 memset

    api-ms-win-eventing-provider-l1-1-0.dll
                404100 Import Address Table
                40435C Import Name Table
                     0 time date stamp
                     0 Index of first forwarder reference

                    3 EventRegister
                    4 EventSetInformation
                    5 EventUnregister
                    9 EventWriteTransfer

    api-ms-win-eventing-classicprovider-l1-1-0.dll
                4040E8 Import Address Table
                404344 Import Name Table
                     0 time date stamp
                     0 Index of first forwarder reference

                    0 GetTraceEnableFlags
                    1 GetTraceEnableLevel
                    2 GetTraceLoggerHandle
                    7 UnregisterTraceGuids
                    3 RegisterTraceGuidsW

    api-ms-win-core-winrt-string-l1-1-0.dll
                404068 Import Address Table
                4042C4 Import Name Table
                     0 time date stamp
                     0 Index of first forwarder reference

                    7 WindowsCreateStringReference

    api-ms-win-core-winrt-l1-1-0.dll
                404054 Import Address Table
                4042B0 Import Name Table
                     0 time date stamp
                     0 Index of first forwarder reference

                    7 RoUninitialize
                    0 RoActivateInstance
                    1 RoGetActivationFactory
                    3 RoInitialize

    api-ms-win-core-errorhandling-l1-1-0.dll
                404008 Import Address Table
                404264 Import Name Table
                     0 time date stamp
                     0 Index of first forwarder reference

                    F SetUnhandledExceptionFilter
                    7 RaiseException
                   11 UnhandledExceptionFilter

    api-ms-win-core-profile-l1-1-0.dll
                404044 Import Address Table
                4042A0 Import Name Table
                     0 time date stamp
                     0 Index of first forwarder reference

                    0 QueryPerformanceCounter

    api-ms-win-core-processthreads-l1-1-0.dll
                404028 Import Address Table
                404284 Import Name Table
                     0 time date stamp
                     0 Index of first forwarder reference

                   11 GetCurrentThreadId
                    D GetCurrentProcessId
                   55 TerminateProcess
                    C GetCurrentProcess

    api-ms-win-core-sysinfo-l1-1-0.dll
                40404C Import Address Table
                4042A8 Import Name Table
                     0 time date stamp
                     0 Index of first forwarder reference

                   16 GetSystemTimeAsFileTime

    api-ms-win-core-interlocked-l1-1-0.dll
                404018 Import Address Table
                404274 Import Name Table
                     0 time date stamp
                     0 Index of first forwarder reference

                    0 InitializeSListHead

    api-ms-win-core-debug-l1-1-0.dll
                404000 Import Address Table
                40425C Import Name Table
                     0 time date stamp
                     0 Index of first forwarder reference

                    5 IsDebuggerPresent

    api-ms-win-core-processthreads-l1-1-1.dll
                40403C Import Address Table
                404298 Import Name Table
                     0 time date stamp
                     0 Index of first forwarder reference

                   32 IsProcessorFeaturePresent

    api-ms-win-core-libraryloader-l1-2-0.dll
                404020 Import Address Table
                40427C Import Name Table
                     0 time date stamp
                     0 Index of first forwarder reference

                   15 GetModuleHandleW

  Summary

        1000 .data
        1000 .idata
        1000 .reloc
        1000 .rsrc
        2000 .text
