Microsoft (R) COFF/PE Dumper Version 14.29.30137.0
Copyright (C) Microsoft Corporation.  All rights reserved.


Dump of file C:\Windows\WinSxS\wow64_microsoft-windows-restore-acl-cmdline_31bf3856ad364e35_10.0.22621.1_none_7f2f5f5dc5803214\DDACLSys.dll

File Type: DLL

  Section contains the following exports for DDACLSys.DLL

    00000000 characteristics
    BFD0C337 time date stamp
        0.00 version
           1 ordinal base
           2 number of functions
           2 number of names

    ordinal hint RVA      name

          1    0 00002CF0 DDACLSys_Offline_Specialize
          2    1 00002CD0 DDACLSys_Specialize

  Image has the following dependencies:

    msvcrt.dll
    api-ms-win-core-file-l1-1-0.dll
    api-ms-win-core-errorhandling-l1-1-0.dll
    api-ms-win-core-handle-l1-1-0.dll
    api-ms-win-core-sysinfo-l1-1-0.dll
    api-ms-win-security-sddl-l1-1-0.dll
    api-ms-win-core-heap-l2-1-0.dll
    api-ms-win-security-base-l1-1-0.dll
    api-ms-win-core-io-l1-1-0.dll
    api-ms-win-core-registry-l1-1-0.dll
    api-ms-win-core-file-l1-2-0.dll
    api-ms-win-core-libraryloader-l1-2-0.dll
    api-ms-win-core-synch-l1-2-0.dll
    api-ms-win-core-processthreads-l1-1-0.dll
    api-ms-win-core-profile-l1-1-0.dll
    ADVAPI32.dll
    SHLWAPI.dll

  Section contains the following imports:

    msvcrt.dll
              100050E0 Import Address Table
              1000536C Import Name Table
                     0 time date stamp
                     0 Index of first forwarder reference

                  173 _except_handler4_common
                  11A _amsg_exit
                  514 memcpy
                   74 _XcptFilter
                  12B _callnewh
                  508 malloc
                  4D0 free
                  57A wcscat_s
                  57F wcscpy_s
                  418 _wcsicmp
                  3F1 _vsnprintf
                  3F7 _vsnwprintf
                  1F3 _initterm
                  518 memset

    api-ms-win-core-file-l1-1-0.dll
              10005024 Import Address Table
              100052B0 Import Name Table
                     0 time date stamp
                     0 Index of first forwarder reference

                   2A GetFileAttributesW
                    6 CreateFileW
                   2D GetFileSizeEx
                   16 FindFirstVolumeW
                   1C FindNextVolumeW
                   59 WriteFile
                   1D FindVolumeClose
                   3F GetVolumeInformationW
                   53 SetFilePointer
                   26 GetDriveTypeW
                   4C SetEndOfFile

    api-ms-win-core-errorhandling-l1-1-0.dll
              10005014 Import Address Table
              100052A0 Import Name Table
                     0 time date stamp
                     0 Index of first forwarder reference

                    F SetUnhandledExceptionFilter
                   11 UnhandledExceptionFilter
                    5 GetLastError

    api-ms-win-core-handle-l1-1-0.dll
              1000505C Import Address Table
              100052E8 Import Name Table
                     0 time date stamp
                     0 Index of first forwarder reference

                    0 CloseHandle

    api-ms-win-core-sysinfo-l1-1-0.dll
              100050B4 Import Address Table
              10005340 Import Name Table
                     0 time date stamp
                     0 Index of first forwarder reference

                   1E GetWindowsDirectoryW
                   18 GetTickCount
                   14 GetSystemTimeAsFileTime
                    5 GetLocalTime

    api-ms-win-security-sddl-l1-1-0.dll
              100050D4 Import Address Table
              10005360 Import Name Table
                     0 time date stamp
                     0 Index of first forwarder reference

                    2 ConvertStringSecurityDescriptorToSecurityDescriptorW
                    0 ConvertSecurityDescriptorToStringSecurityDescriptorW

    api-ms-win-core-heap-l2-1-0.dll
              10005064 Import Address Table
              100052F0 Import Name Table
                     0 time date stamp
                     0 Index of first forwarder reference

                    2 LocalAlloc
                    3 LocalFree

    api-ms-win-security-base-l1-1-0.dll
              100050C8 Import Address Table
              10005354 Import Name Table
                     0 time date stamp
                     0 Index of first forwarder reference

                   36 GetSecurityDescriptorControl
                   37 GetSecurityDescriptorDacl

    api-ms-win-core-io-l1-1-0.dll
              10005070 Import Address Table
              100052FC Import Name Table
                     0 time date stamp
                     0 Index of first forwarder reference

                    4 DeviceIoControl

    api-ms-win-core-registry-l1-1-0.dll
              1000509C Import Address Table
              10005328 Import Name Table
                     0 time date stamp
                     0 Index of first forwarder reference

                    0 RegCloseKey
                   1E RegOpenKeyExW
                   23 RegQueryValueExW

    api-ms-win-core-file-l1-2-0.dll
              10005054 Import Address Table
              100052E0 Import Name Table
                     0 time date stamp
                     0 Index of first forwarder reference

                   42 GetVolumePathNamesForVolumeNameW

    api-ms-win-core-libraryloader-l1-2-0.dll
              10005078 Import Address Table
              10005304 Import Name Table
                     0 time date stamp
                     0 Index of first forwarder reference

                    1 DisableThreadLibraryCalls

    api-ms-win-core-synch-l1-2-0.dll
              100050AC Import Address Table
              10005338 Import Name Table
                     0 time date stamp
                     0 Index of first forwarder reference

                   2D Sleep

    api-ms-win-core-processthreads-l1-1-0.dll
              10005080 Import Address Table
              1000530C Import Name Table
                     0 time date stamp
                     0 Index of first forwarder reference

                   11 GetCurrentThreadId
                    C GetCurrentProcess
                   4D TerminateProcess
                    D GetCurrentProcessId

    api-ms-win-core-profile-l1-1-0.dll
              10005094 Import Address Table
              10005320 Import Name Table
                     0 time date stamp
                     0 Index of first forwarder reference

                    0 QueryPerformanceCounter

    ADVAPI32.dll
              10005000 Import Address Table
              1000528C Import Name Table
                     0 time date stamp
                     0 Index of first forwarder reference

                  2D9 SetNamedSecurityInfoW
                  142 GetNamedSecurityInfoW

    SHLWAPI.dll
              1000500C Import Address Table
              10005298 Import Name Table
                     0 time date stamp
                     0 Index of first forwarder reference

                      Ordinal   437

  Summary

        1000 .data
        1000 .idata
        1000 .reloc
        1000 .rsrc
        3000 .text
