Microsoft (R) COFF/PE Dumper Version 14.29.30137.0
Copyright (C) Microsoft Corporation.  All rights reserved.


Dump of file C:\Windows\System32\drivers\mskssrv.sys

File Type: EXECUTABLE IMAGE

  Image has the following dependencies:

    ntoskrnl.exe
    ks.sys

  Section contains the following imports:

    ntoskrnl.exe
             1C00060A0 Import Address Table
             1C0006340 Import Name Table
                     0 time date stamp
                     0 Index of first forwarder reference

                         181 ZwSetValueKey
                         12F RtlCompareMemory
                          B4 KeInitializeMutex
                          C6 KeReleaseMutex
                          D9 KeWaitForSingleObject
                          FF ObReferenceObjectByPointer
                         189 _purecall
                          F5 MmUnlockPages
                          D1 KeSetEvent
                          FA NtClose
                          F7 MmUnmapLockedPages
                          1C ExEventObjectType
                          48 IoAllocateWorkItem
                          67 IoGetCurrentProcess
                         16C ZwClose
                          7A IoQueueWorkItem
                          A3 IofCompleteRequest
                         9F5 RtlValidSid
                         93D RtlLengthSid
                         BF2 ZwUpdateWnfStateData
                          71 DbgPrintEx
                         74C PsGetCurrentProcessId
                         76F PsGetProcessId
                         6AA ObDuplicateObject
                         6B6 ObOpenObjectByPointer
                         156 ExSetTimer
                          D8 ExDeleteTimer
                          C3 ExAllocateTimer
                          C7 ExCancelTimer
                         570 KeStackAttachProcess
                         580 KeUnstackDetachProcess
                          EB MmMapLockedPagesSpecifyCache
                         17E ZwQueryValueKey
                          52 IoCreateDevice
                          15 ExAllocatePoolWithTag
                          53 IoCreateFile
                          64 IoFreeMdl
                          1D ExFreePool
                          FE ObReferenceObjectByHandle
                          60 IoFileObjectType
                          4A IoAttachDeviceToDeviceStack
                          5C IoDeleteDevice
                          78 IoOpenDeviceInterfaceRegistryKey
                         148 RtlInitUnicodeString
                          47 IoAllocateMdl
                         102 ObfDereferenceObject
                          EE MmProbeAndLockPages
                          65 IoFreeWorkItem
                         184 __C_specific_handler

    ks.sys
             1C0006000 Import Address Table
             1C00062A0 Import Name Table
                     0 time date stamp
                     0 Index of first forwarder reference

                          C6 KsSetMajorFunctionHandler
                          36 KsDefaultForwardIrp
                          35 KsDefaultDispatchPower
                          5C KsFreeDeviceHeader
                          61 KsFreeObjectHeader
                          A9 KsQueryDevicePnpObject
                          20 KsAllocateObjectHeader
                          C1 KsSetCameraAllowlistedProcess
                          A6 KsPropertyHandler
                          DD KsUpdateCameraStreamingConsent
                          21 KsCacheMedium
                          80 KsIsCurrentProcessFrameServer
                          B1 KsReferenceSoftwareBusObject
                          C4 KsSetDevicePnpAndBaseObject
                          1C KsAllocateDeviceHeader
                          DE KsUpdateUserLoginTrigger
                          38 KsDereferenceSoftwareBusObject
                          D8 KsSynchronousIoControlDevice
                          34 KsDefaultDispatchPnp

  Summary

        1000 .data
        1000 .guids
        1000 .idata
        1000 .pdata
        1000 .rdata
        1000 .reloc
        1000 .rsrc
        2000 .text
        1000 GFIDS
        1000 INIT
        5000 PAGE
        1000 fothk
