Microsoft (R) COFF/PE Dumper Version 14.29.30137.0
Copyright (C) Microsoft Corporation.  All rights reserved.


Dump of file C:\Windows\System32\drivers\stornvme.sys

File Type: EXECUTABLE IMAGE

  Image has the following dependencies:

    storport.sys

  Section contains the following imports:

    storport.sys
             1C0032000 Import Address Table
             1C00320E0 Import Name Table
                     0 time date stamp
                     0 Index of first forwarder reference

                          11 StorPortGetPhysicalAddress
                          14 StorPortGetUncachedExtension
                          19 StorPortNotification
                          16 StorPortInitialize
                           E StorPortGetBusData
                           B StorPortExtendedFunction
                          2C StorPortResume
                          30 StorPortStallExecution
                          1A StorPortPause
                          12 StorPortGetScatterGatherList
                          2F StorPortSetDeviceQueueDepth
                          1C StorPortQuerySystemTime
                          2A StorPortRegistryRead
                           D StorPortFreeRegistryBuffer
                           4 StorPortAllocateRegistryBuffer
                           F StorPortGetDeviceBase

  Summary

        1000 .data
        1000 .idata
        2000 .pdata
        7000 .rdata
        1000 .reloc
        1000 .rsrc
       27000 .text
        1000 GFIDS
        1000 INIT
        1000 fothk
