Microsoft (R) COFF/PE Dumper Version 14.29.30137.0
Copyright (C) Microsoft Corporation.  All rights reserved.


Dump of file C:\Windows\System32\drivers\WdBoot.sys

File Type: EXECUTABLE IMAGE

  Image has the following dependencies:

    ntoskrnl.exe
    cng.sys

  Section contains the following imports:

    ntoskrnl.exe
             1C0007058 Import Address Table
             1C0007220 Import Name Table
                     0 time date stamp
                     0 Index of first forwarder reference

                          D4 ExFreePoolWithTag
                         416 IoWMIRegistrationControl
                         2C0 InitSafeBootMode
                         2C1 InitializeSListHead
                          53 CmRegisterCallback
                         AD3 ZwClose
                         B24 ZwOpenKey
                         166 ExpInterlockedFlushSList
                         B62 ZwQueryValueKey
                          4D CmCallbackGetKeyObjectID
                         7D5 RtlAnsiStringToUnicodeString
                         AF5 ZwDeleteValueKey
                         8AE RtlInitAnsiString
                         B9B ZwSetValueKey
                         7F9 RtlCompareMemory
                         457 KeBugCheckEx
                         5A8 MmGetSystemRoutineAddress
                          FC ExNotifyCallback
                         C38 wcsstr
                         812 RtlCopyUnicodeString
                         8B7 RtlInitUnicodeString
                          B5 ExCreateCallback
                         697 ObfDereferenceObject
                          57 CmUnRegisterCallback
                         9AB RtlUpcaseUnicodeChar
                         168 ExpInterlockedPushEntrySList
                         849 RtlEqualUnicodeString
                         BB1 __C_specific_handler
                         B5F ZwQuerySystemInformation
                          A6 ExAllocatePoolWithQuotaTag
                         75D PsGetVersion
                          A7 ExAllocatePoolWithTag

    cng.sys
             1C0007000 Import Address Table
             1C00071C8 Import Name Table
                     0 time date stamp
                     0 Index of first forwarder reference

                           2 BCryptCreateHash
                          1A BCryptHashData
                          1C BCryptImportKeyPair
                           8 BCryptDestroyHash
                           1 BCryptCloseAlgorithmProvider
                          12 BCryptFinishHash
                          1E BCryptOpenAlgorithmProvider
                          28 BCryptVerifySignature
                          18 BCryptGetProperty
                           9 BCryptDestroyKey

  Summary

        1000 .data
        1000 .idata
        1000 .pdata
        2000 .rdata
        1000 .reloc
        1000 .rsrc
        2000 .text
        1000 GFIDS
        2000 INIT
        3000 PAGE
