Microsoft (R) COFF/PE Dumper Version 14.29.30137.0
Copyright (C) Microsoft Corporation.  All rights reserved.


Dump of file C:\Windows\WinSxS\amd64_microsoft-windows-refs-v1_31bf3856ad364e35_10.0.22621.1_none_b3babadd92f84abb\refsv1.sys

File Type: EXECUTABLE IMAGE

  Image has the following dependencies:

    ntoskrnl.exe

  Section contains the following imports:

    ntoskrnl.exe
             1C0096000 Import Address Table
             1C0096B18 Import Name Table
                     0 time date stamp
                     0 Index of first forwarder reference

                         BF7 __C_specific_handler
                          4F CcSetFileSizesEx
                         46A KeAcquireGuardedMutex
                          C1 ExAllocatePoolWithTag
                         8F4 RtlInitializeBitMap
                          EE ExFreePoolWithTag
                         52F KeReleaseGuardedMutex
                          AA ExAcquireResourceSharedLite
                         144 ExReleaseResourceLite
                         89E RtlFindNextForwardRunClear
                         4CD KeInitializeEvent
                         585 KeWaitForSingleObject
                         48D KeClearEvent
                         232 FsRtlOplockIsFastIoPossible
                         115 ExIsResourceAcquiredExclusiveLite
                          A2 ExAcquireFastMutex
                         138 ExReleaseFastMutex
                          29 CcFlushCache
                          2F CcGetFileObjectFromSectionPtrsRef
                         6CB ObfDereferenceObject
                          43 CcPurgeCacheSection
                         1A9 FsRtlCheckOplockEx
                          A9 ExAcquireResourceExclusiveLite
                         218 FsRtlNormalizeNtstatus
                          F0 ExFreeToNPagedLookasideList
                          41 CcPrepareMdlWrite
                         5F1 MmMapLockedPagesSpecifyCache
                          3E CcMdlWriteComplete
                          1C CcCanIWrite
                         1A8 FsRtlCheckOplock
                         1A7 FsRtlCheckLockForWriteAccess
                         1FC FsRtlIsNtstatusExpected
                          33 CcInitializeCacheMap
                          57 CcUninitializeCacheMap
                         32E IoCreateStreamFileObjectLite
                          53 CcSetParallelFlushFile
                         535 KeReleaseMutant
                         116 ExIsResourceAcquiredSharedLite
                         6A7 ObDereferenceObjectDeferDelete
                          3A CcMapData
                          40 CcPinRead
                          42 CcPreparePinWrite
                          3C CcMdlReadComplete
                         487 KeBugCheckEx
                         38E IoGetTopLevelIrp
                          5E CcZeroData
                         820 RtlCaptureStackBackTrace
                          F9 ExGetSharedWaiterCount
                          F4 ExGetExclusiveWaiterCount
                         5BD MmCanFileBeTruncated
                          1D CcCoherencyFlushAndPurgeCache
                         499 KeDelayExecutionThread
                         4A7 KeExpandKernelStackAndCalloutEx
                         44F IofCompleteRequest
                         410 IoSetTopLevelIrp
                         4A2 KeEnterCriticalRegion
                         4EF KeLeaveCriticalRegion
                         5C8 MmFlushImageSection
                         21C FsRtlNotifyFilterChangeDirectory
                         21A FsRtlNotifyCleanup
                         1C1 FsRtlFastUnlockAll
                         385 IoGetRequestorProcess
                         35B IoGetActivityIdThread
                         35A IoGetActivityIdIrp
                         1D9 FsRtlHeatLogIo
                         5C9 MmForceSectionClosed
                         3D8 IoRemoveShareAccess
                         226 FsRtlNotifyVolumeEvent
                         3BD IoRaiseInformationalHardError
                         366 IoGetCurrentProcess
                         517 KeQueryPriorityThread
                         126 ExRaiseStatus
                         121 ExQueueWorkItem
                         1A3 FsRtlCancellableWaitForSingleObject
                         307 IoCancelIrp
                         559 KeSetEvent
                         39F IoIsOperationSynchronous
                         1BC FsRtlDissectName
                          BB ExAllocateFromPagedLookasideList
                          F1 ExFreeToPagedLookasideList
                         1A0 FsRtlAreVolumeStartupApplicationsComplete
                          5D CcWaitForCurrentLazyWriterActivity
                         A4B SePrivilegeCheck
                         6AD ObGetObjectSecurity
                         6C4 ObReleaseObjectSecurity
                         22B FsRtlOplockBreakH
                         19D FsRtlAreNamesEqual
                         5C7 MmDoesFileHaveUserWritableReferences
                         313 IoCheckShareAccess
                         42E IoUpdateShareAccess
                         40C IoSetShareAccessEx
                         314 IoCheckShareAccessEx
                         22F FsRtlOplockFsctrl
                         1AF FsRtlCurrentBatchOplock
                         1B1 FsRtlCurrentOplockH
                         3FD IoSetInformation
                         306 IoCancelFileOpen
                         269 FsRtlValidateReparsePointBuffer
                          71 DbgPrintEx
                         957 RtlNtStatusToDosErrorNoTeb
                         C3D _strnicmp
                         770 PsGetProcessImageFileName
                         C95 vDbgPrintEx
                         303 IoBuildPartialMdl
                         61F MmUnmapLockedPages
                         2F6 IoAllocateMdl
                         605 MmProbeAndLockPages
                         356 IoFreeMdl
                         5F2 MmMapLockedPagesWithReservedMapping
                         620 MmUnmapReservedMapping
                         1FF FsRtlIsTotalDeviceFailure
                         155 ExSetResourceOwnerPointerEx
                         37C IoGetIoPriorityHint
                         61C MmUnlockPages
                          59 CcUnpinData
                         5FF MmMdlPageContentsState
                         8BD RtlGetCompressionWorkSpaceSize
                          20 CcCopyWrite
                          BA ExAllocateFromNPagedLookasideList
                         3A5 IoMakeAssociatedIrp
                         407 IoSetMasterIrpStatus
                         353 IoFreeIrp
                         4B1 KeFlushIoBuffers
                         5BC MmBuildMdlForNonPagedPool
                         301 IoBuildAsynchronousFsdRequest
                         44E IofCallDriver
                         143 ExReleaseResourceForThreadLite
                         39A IoIs32bitProcess
                         6BB ObReferenceObjectByHandle
                         34C IoFileObjectType
                         2F4 IoAllocateIrp
                         1BE FsRtlDoesNameContainWildCards
                         1F9 FsRtlIsNameInExpression
                         A1F SeCaptureSubjectContext
                         21E FsRtlNotifyFilterReportChange
                         8F1 RtlInitUnicodeString
                         72F ProbeForWrite
                         6BA ObQueryObjectAuditingByHandle
                         A34 SeDeleteObjectAuditAlarm
                         A1C SeAuditingHardLinkEventsWithContext
                         A12 SeAuditHardLinkCreation
                          1E CcCopyRead
                          CB ExConvertExclusiveToSharedLite
                         227 FsRtlNotifyVolumeEventEx
                         3EB IoRetrievePriorityInfo
                         404 IoSetIoPriorityHintIntoThread
                         2FA IoApplyPriorityInfoThread
                         233 FsRtlOplockIsSharedRequest
                         1A5 FsRtlCheckLockForOplockRequest
                         234 FsRtlOplockKeysEqual
                         230 FsRtlOplockFsctrlEx
                         2EC IoAcquireVpbSpinLock
                         3D4 IoReleaseVpbSpinLock
                         1BA FsRtlDismountComplete
                         302 IoBuildDeviceIoControlRequest
                         402 IoSetIoPriorityHint
                         72E ProbeForRead
                          24 CcDeferWrite
                         7A7 PsIsThreadTerminating
                         1C0 FsRtlFastCheckLockForWrite
                         6CD ObfReferenceObject
                         475 KeAcquireSpinLockRaiseToDpc
                         539 KeReleaseSpinLock
                         538 KeReleaseSemaphore
                         1E0 FsRtlIncrementCcFastReadWait
                         1DD FsRtlIncrementCcFastReadNoWait
                         1DF FsRtlIncrementCcFastReadResourceMiss
                         1DE FsRtlIncrementCcFastReadNotPossible
                          22 CcCopyWriteWontFlush
                         1DC FsRtlIncrementCcFastMdlReadWait
                          3B CcMdlRead
                         103 ExInitializeResourceLite
                          D7 ExDeleteResourceLite
                         23B FsRtlPrivateLock
                         1C3 FsRtlFastUnlockSingle
                         1C2 FsRtlFastUnlockAllByKey
                         19F FsRtlAreThereWaitingFileLocks
                         23C FsRtlProcessFileLock
                         458 KdDebuggerEnabled
                         1D8 FsRtlHeatInit
                         1A1 FsRtlBalanceReads
                         3CE IoRegisterPlugPlayNotification
                         84C RtlCopyUnicodeString
                         6B9 ObQueryNameString
                         833 RtlCompareMemory
                         323 IoCreateDevice
                         3F5 IoSetDeviceToVerify
                         1D5 FsRtlGetSectorSizeInformation
                         8E8 RtlInitAnsiString
                         80F RtlAnsiStringToUnicodeString
                         32D IoCreateStreamFileObjectEx2
                          4A CcSetAdditionalCacheAttributesEx
                         5C6 MmDisableModifiedWriteOfSection
                         54A KeResetEvent
                         4CE KeInitializeGuardedMutex
                         1DA FsRtlHeatLogTierMove
                         9C4 RtlTestBit
                         9A5 RtlSetBits
                         9A3 RtlSetBit
                          1A CcAddDirtyPagesToExternalCache
                          23 CcDeductDirtyPagesFromExternalCache
                          44 CcRegisterExternalCache
                          5C CcUnregisterExternalCache
                         202 FsRtlLegalAnsiCharacterArray
                         9D8 RtlUnicodeStringToCountedOemString
                         8B0 RtlFreeOemString
                          3D CcMdlWriteAbort
                         1BF FsRtlFastCheckLockForRead
                         812 RtlAppendUnicodeStringToString
                         434 IoVolumeDeviceToDosName
                         447 IoWithinStackLimits
                         2E8 IoAcquireCancelSpinLock
                         3D1 IoReleaseCancelSpinLock
                         875 RtlDuplicateUnicodeString
                          95 EtwWrite
                         89C RtlFindMessage
                         5DB MmGetSystemRoutineAddress
                         441 IoWMIRegistrationControl
                         8DF RtlGetVersion
                         47E KeAllocateCalloutStackEx
                         211 FsRtlMdlReadCompleteDev
                         215 FsRtlMdlWriteCompleteDev
                         241 FsRtlRegisterFileSystemFilterCallbacks
                          8F EtwRegister
                         4D0 KeInitializeMutant
                         2E6 InitializeSListHead
                         4D7 KeInitializeTimer
                         4C9 KeInitializeDpc
                         557 KeSetCoalescableTimer
                         4D4 KeInitializeSemaphore
                         4FF KeQueryActiveProcessorCount
                         3C9 IoRegisterFileSystem
                         4B5 KeFreeCalloutStack
                         5E7 MmIsThisAnNtAsSystem
                         100 ExInitializeNPagedLookasideList
                         101 ExInitializePagedLookasideList
                         B69 ZwOpenKey
                         B17 ZwClose
                         BA8 ZwQueryValueKey
                         B62 ZwNotifyChangeKey
                         8B3 RtlFreeUnicodeString
                         93B RtlLengthRequiredSid
                         8FB RtlInitializeSid
                         9BF RtlSubAuthoritySid
                         84F RtlCreateAcl
                         7FD RtlAddAccessAllowedAce
                         856 RtlCreateSecurityDescriptor
                         9A9 RtlSetDaclSecurityDescriptor
                         A0F SeAssignSecurity
                         375 IoGetFileObjectGenericMapping
                         93C RtlLengthSecurityDescriptor
                         A5C SeReleaseSubjectContext
                         7FE RtlAddAccessAllowedAceEx
                         483 KeAreAllApcsDisabled
                         863 RtlDelete
                         9BA RtlSplay
                         1A6 FsRtlCheckLockForReadAccess
                          54 CcSetReadAheadGranularity
                         603 MmPrefetchPages
                          AF ExAcquireSharedStarveExclusive
                         16E ExTryToAcquireFastMutex
                         A07 SeAccessCheckEx
                         A0A SeAccessCheckWithHint
                         A64 SeSetSecurityDescriptorInfo
                         A31 SeDeassignSecurity
                         A54 SeQuerySecurityDescriptorInfo
                         A43 SeLockSubjectContext
                         A74 SeUnlockSubjectContext
                         A0B SeAdjustAccessStateForAccessConstraints
                         A16 SeAuditingAnyFileEventsWithContextEx
                         A0E SeAppendPrivileges
                         A3A SeFreePrivileges
                         A67 SeShouldCheckForAccessRightsFromParent
                         A19 SeAuditingFileEventsWithContextEx
                         A49 SeOpenObjectForDeleteAuditAlarm
                         A46 SeOpenObjectAuditAlarm
                         A78 SeValidSecurityDescriptor
                         A06 SeAccessCheck
                         A10 SeAssignSecurityEx
                         A25 SeComputeAutoInheritByObjectType
                         8C1 RtlGetDaclSecurityDescriptor
                         969 RtlOwnerAcesPresent
                         8D6 RtlGetSaclSecurityDescriptor
                         890 RtlFindAceByType
                          94 EtwUnregister
                         304 IoBuildSynchronousFsdRequest
                         435 IoVolumeDeviceToGuid
                         4D5 KeInitializeSpinLock
                         8F9 RtlInitializeGenericTableAvl
                         223 FsRtlNotifyInitializeSync
                         5D4 MmGetMaximumFileSectionSize
                         5B1 MmAllocateMappingAddress
                         1DB FsRtlHeatUninit
                         225 FsRtlNotifyUninitializeSync
                         5CD MmFreeMappingAddress
                         33C IoDeleteDevice
                         12F ExReinitializeResourceLite
                         8FF RtlInsertElementGenericTableAvl
                         946 RtlLookupElementGenericTableFullAvl
                         901 RtlInsertElementGenericTableFullAvl
                         867 RtlDeleteElementGenericTableAvl
                         25C FsRtlTeardownPerFileContexts
                         87F RtlEnumerateGenericTableWithoutSplayingAvl
                         1EA FsRtlInitializeOplock
                         266 FsRtlUninitializeOplock
                         5BB MmBadPointer
                         1CA FsRtlFreeFileLock
                         25D FsRtlTeardownPerStreamContexts
                         197 FsRtlAllocateFileLock
                         471 KeAcquireQueuedSpinLock
                         537 KeReleaseQueuedSpinLock
                          92 EtwSetInformation
                          9A EtwWriteTransfer
                         51B KeQueryTimeIncrement
                         561 KeSetPriorityThread
                          4D CcSetDirtyPinnedData
                         428 IoUnregisterPlugPlayNotification
                         431 IoVerifyVolume
                         3FC IoSetHardErrorOrVerifyDevice
                         1D7 FsRtlGetVirtualDiskNestingLevel
                         836 RtlCompareUnicodeString
                         4B9 KeGetCurrentIrql
                         73E PsCreateSystemThread
                         C31 _purecall
                          EC ExFreePool
                          D5 ExDeleteNPagedLookasideList
                         82C RtlClearBits
                         C74 qsort
                         4D1 KeInitializeMutex
                         536 KeReleaseMutex
                         8A2 RtlFindSetBits
                         613 MmSetAddressRangeModified
                          A8 ExAcquirePushLockSharedEx
                         13E ExReleasePushLockEx
                          A7 ExAcquirePushLockExclusiveEx
                         816 RtlAreBitsClear
                         9A1 RtlSetAllBits
                         89B RtlFindLongestRunClear
                         95A RtlNumberOfClearBits
                         583 KeWaitForMultipleObjects
                         46C KeAcquireInStackQueuedSpinLock
                         531 KeReleaseInStackQueuedSpinLock
                         C2D _local_unwind

  Summary

        B000 .data
        4000 .idata
        7000 .pdata
       21000 .rdata
        5000 .reloc
        4000 .rsrc
       62000 .text
        1000 GFIDS
        2000 INIT
       55000 PAGE
        1000 fothk
