Microsoft (R) COFF/PE Dumper Version 14.29.30137.0
Copyright (C) Microsoft Corporation.  All rights reserved.


Dump of file C:\Windows\WinSxS\amd64_microsoft-onecore-n..rity-domain-clients_31bf3856ad364e35_10.0.22621.1_none_55d344c552e87c80\FwRemoteSvr.dll

File Type: DLL

  Image has the following dependencies:

    fwbase.dll
    msvcrt.dll
    api-ms-win-eventing-classicprovider-l1-1-0.dll
    api-ms-win-core-errorhandling-l1-1-0.dll
    api-ms-win-core-heap-l2-1-0.dll
    RPCRT4.dll
    api-ms-win-core-processthreads-l1-1-0.dll
    api-ms-win-security-base-l1-1-0.dll
    api-ms-win-core-synch-l1-2-0.dll
    api-ms-win-core-profile-l1-1-0.dll
    api-ms-win-core-sysinfo-l1-1-0.dll
    api-ms-win-core-rtlsupport-l1-1-0.dll
    FirewallAPI.dll
    api-ms-win-core-delayload-l1-1-1.dll
    api-ms-win-core-delayload-l1-1-0.dll

  Image has the following delay load dependencies:

    api-ms-win-security-sddl-l1-1-0.dll

  Section contains the following exports for FwRemoteSvr.DLL

    00000000 characteristics
    22D7FBAD time date stamp
        0.00 version
           1 ordinal base
           2 number of functions
           2 number of names

    ordinal hint RVA      name

          1    0 00001A30 FwRpcAPIsInitialize
          2    1 00001CB0 FwRpcAPIsShutdown

  Section contains the following imports:

    fwbase.dll
             180013630 Import Address Table
             180018768 Import Name Table
                     0 time date stamp
                     0 Index of first forwarder reference

                           4 FwAlloc
                          2A FwFree
                          8B FwSizeTMultiply
                          93 FwStringCopy
                          3F FwHResultToWindowsError
                          1C FwCloseHandle

    msvcrt.dll
             180013668 Import Address Table
             1800187A0 Import Name Table
                     0 time date stamp
                     0 Index of first forwarder reference

                         459 free
                          B7 _amsg_exit
                          5A _XcptFilter
                         493 malloc
                         189 _initterm
                          5E __C_specific_handler
                         4A3 memset

    api-ms-win-eventing-classicprovider-l1-1-0.dll
             180013610 Import Address Table
             180018748 Import Name Table
                     0 time date stamp
                     0 Index of first forwarder reference

                           5 TraceMessage

    api-ms-win-core-errorhandling-l1-1-0.dll
             180013550 Import Address Table
             180018688 Import Name Table
                     0 time date stamp
                     0 Index of first forwarder reference

                           5 GetLastError
                           F SetUnhandledExceptionFilter
                          11 UnhandledExceptionFilter

    api-ms-win-core-heap-l2-1-0.dll
             180013570 Import Address Table
             1800186A8 Import Name Table
                     0 time date stamp
                     0 Index of first forwarder reference

                           A LocalFree

    RPCRT4.dll
             180013498 Import Address Table
             1800185D0 Import Name Table
                     0 time date stamp
                     0 Index of first forwarder reference

                         213 RpcStringBindingParseW
                         18B RpcBindingToStringBindingW
                          25 I_RpcBindingIsClientLocal
                         1E6 RpcServerUnregisterIfEx
                         18D RpcBindingVectorFree
                         198 RpcEpUnregister
                         1CF RpcServerInqBindings
                         1E1 RpcServerRegisterIf3
                         1F7 RpcServerUseProtseqW
                         215 RpcStringFreeW
                         1DE RpcServerRegisterAuthInfoW
                         1D4 RpcServerInqDefaultPrincNameW
                         132 NdrServerCallAll
                         131 NdrServerCall2
                         1CB RpcRevertToSelf
                         1A7 RpcImpersonateClient
                         17A RpcBindingInqAuthClientW
                         196 RpcEpRegisterW

    api-ms-win-core-processthreads-l1-1-0.dll
             180013580 Import Address Table
             1800186B8 Import Name Table
                     0 time date stamp
                     0 Index of first forwarder reference

                          10 GetCurrentThread
                          36 OpenThreadToken
                           C GetCurrentProcess
                          55 TerminateProcess
                          11 GetCurrentThreadId
                           D GetCurrentProcessId

    api-ms-win-security-base-l1-1-0.dll
             180013620 Import Address Table
             180018758 Import Name Table
                     0 time date stamp
                     0 Index of first forwarder reference

                           0 AccessCheck

    api-ms-win-core-synch-l1-2-0.dll
             1800135E8 Import Address Table
             180018720 Import Name Table
                     0 time date stamp
                     0 Index of first forwarder reference

                          2D Sleep

    api-ms-win-core-profile-l1-1-0.dll
             1800135B8 Import Address Table
             1800186F0 Import Name Table
                     0 time date stamp
                     0 Index of first forwarder reference

                           0 QueryPerformanceCounter

    api-ms-win-core-sysinfo-l1-1-0.dll
             1800135F8 Import Address Table
             180018730 Import Name Table
                     0 time date stamp
                     0 Index of first forwarder reference

                          16 GetSystemTimeAsFileTime
                          1A GetTickCount

    api-ms-win-core-rtlsupport-l1-1-0.dll
             1800135C8 Import Address Table
             180018700 Import Name Table
                     0 time date stamp
                     0 Index of first forwarder reference

                         64E RtlVirtualUnwind
                         509 RtlLookupFunctionEntry
                         305 RtlCaptureContext

    FirewallAPI.dll
             180013320 Import Address Table
             180018458 Import Name Table
                     0 time date stamp
                     0 Index of first forwarder reference

                          37 FWEnumProducts
                          72 FWSetConfig
                          54 FWGetConfig2
                          61 FWOpenPolicyStore
                          28 FWEnumAdapters
                          34 FWEnumNetworks
                          64 FWQueryCryptoSets
                          62 FWQueryAuthenticationSets
                          67 FWQueryMainModeRules
                          63 FWQueryConnectionSecurityRules
                          65 FWQueryFirewallRules
                          33 FWEnumMainModeRules
                          1A FWDeleteAllMainModeRules
                          23 FWDeleteMainModeRule
                          7B FWSetMainModeRule
                           B FWAddMainModeRule
                          25 FWDeletePhase2SAs
                          53 FWGetConfig
                          24 FWDeletePhase1SAs
                          75 FWSetFirewallRule
                           9 FWAddFirewallRule
                          10 FWClosePolicyStore
                           5 FWAddConnectionSecurityRule
                          73 FWSetConnectionSecurityRule
                          56 FWGetGlobalConfig2
                          19 FWDeleteAllFirewallRules
                          55 FWGetGlobalConfig
                          6C FWRestoreDefaults
                          1C FWDeleteConnectionSecurityRule
                          17 FWDeleteAllConnectionSecurityRules
                          2A FWEnumConnectionSecurityRules
                          2F FWEnumFirewallRules
                          76 FWSetGlobalConfig
                          20 FWDeleteFirewallRule
                           4 FWAddAuthenticationSet
                          1B FWDeleteAuthenticationSet
                          71 FWSetAuthenticationSet
                          16 FWDeleteAllAuthenticationSets
                          29 FWEnumAuthenticationSets
                           6 FWAddCryptoSet
                          36 FWEnumPhase2SAs
                          35 FWEnumPhase1SAs
                          2B FWEnumCryptoSets
                          18 FWDeleteAllCryptoSets
                          1D FWDeleteCryptoSet
                          74 FWSetCryptoSet

    api-ms-win-core-delayload-l1-1-1.dll
             180013540 Import Address Table
             180018678 Import Name Table
                     0 time date stamp
                     0 Index of first forwarder reference

                           1 ResolveDelayLoadedAPI

    api-ms-win-core-delayload-l1-1-0.dll
             180013530 Import Address Table
             180018668 Import Name Table
                     0 time date stamp
                     0 Index of first forwarder reference

                           0 DelayLoadFailureHook

  Section contains the following delay load imports:

    api-ms-win-security-sddl-l1-1-0.dll
              00000001 Characteristics
      000000018001A600 Address of HMODULE
      000000018001C000 Import Address Table
      0000000180018240 Import Name Table
      0000000180018288 Bound Import Name Table
      0000000000000000 Unload Import Name Table
                     0 time date stamp

                                    0000000180001976     2 ConvertStringSecurityDescriptorToSecurityDescriptorW

  Summary

        1000 .data
        1000 .didat
        1000 .pdata
        F000 .rdata
        1000 .reloc
        1000 .rsrc
        A000 .text
