Microsoft (R) COFF/PE Dumper Version 14.29.30137.0
Copyright (C) Microsoft Corporation.  All rights reserved.


Dump of file C:\Windows\WinSxS\amd64_dual_mshdc.inf_31bf3856ad364e35_10.0.22621.580_none_7d61946b98c18566\storahci.sys

File Type: EXECUTABLE IMAGE

  Image has the following dependencies:

    storport.sys

  Section contains the following imports:

    storport.sys
             1C002C000 Import Address Table
             1C002C0D8 Import Name Table
                     0 time date stamp
                     0 Index of first forwarder reference

                          12 StorPortGetScatterGatherList
                          1C StorPortQuerySystemTime
                          14 StorPortGetUncachedExtension
                          19 StorPortNotification
                          16 StorPortInitialize
                           E StorPortGetBusData
                           B StorPortExtendedFunction
                          11 StorPortGetPhysicalAddress
                          30 StorPortStallExecution
                          2A StorPortRegistryRead
                           D StorPortFreeRegistryBuffer
                           4 StorPortAllocateRegistryBuffer
                           F StorPortGetDeviceBase
                           9 StorPortDeviceBusy
                          2F StorPortSetDeviceQueueDepth

  Summary

        1000 .data
        1000 .idata
        2000 .pdata
        5000 .rdata
        1000 .reloc
        1000 .rsrc
       23000 .text
        1000 GFIDS
        1000 INIT
        1000 fothk
