Microsoft (R) COFF/PE Dumper Version 14.29.30137.0
Copyright (C) Microsoft Corporation.  All rights reserved.


Dump of file C:\Windows\WinSxS\amd64_microsoft-windows-restore-acl-cmdline_31bf3856ad364e35_10.0.22621.1_none_74dab50b911f7019\DDACLSys.dll

File Type: DLL

  Image has the following dependencies:

    msvcrt.dll
    api-ms-win-core-file-l1-1-0.dll
    api-ms-win-core-errorhandling-l1-1-0.dll
    api-ms-win-core-handle-l1-1-0.dll
    api-ms-win-core-sysinfo-l1-1-0.dll
    api-ms-win-security-sddl-l1-1-0.dll
    api-ms-win-core-heap-l2-1-0.dll
    api-ms-win-security-base-l1-1-0.dll
    api-ms-win-core-io-l1-1-0.dll
    api-ms-win-core-registry-l1-1-0.dll
    api-ms-win-core-file-l1-2-0.dll
    api-ms-win-core-libraryloader-l1-2-0.dll
    api-ms-win-core-synch-l1-2-0.dll
    api-ms-win-core-rtlsupport-l1-1-0.dll
    api-ms-win-core-processthreads-l1-1-0.dll
    api-ms-win-core-profile-l1-1-0.dll
    ADVAPI32.dll
    SHLWAPI.dll

  Section contains the following exports for DDACLSys.DLL

    00000000 characteristics
    8E195ADF time date stamp
        0.00 version
           1 ordinal base
           2 number of functions
           2 number of names

    ordinal hint RVA      name

          1    0 00002F70 DDACLSys_Offline_Specialize
          2    1 00002FA0 DDACLSys_Specialize

  Section contains the following imports:

    msvcrt.dll
             180004340 Import Address Table
             1800057E8 Import Name Table
                     0 time date stamp
                     0 Index of first forwarder reference

                         189 _initterm
                          B7 _amsg_exit
                          5A _XcptFilter
                          C8 _callnewh
                         493 malloc
                         459 free
                         49F memcpy
                         50D wcscat_s
                         512 wcscpy_s
                         397 _wcsicmp
                         370 _vsnprintf
                         376 _vsnwprintf
                          5E __C_specific_handler
                         4A3 memset

    api-ms-win-core-file-l1-1-0.dll
             1800041A8 Import Address Table
             180005650 Import Name Table
                     0 time date stamp
                     0 Index of first forwarder reference

                          2A GetFileAttributesW
                          1D FindVolumeClose
                          26 GetDriveTypeW
                          1C FindNextVolumeW
                          53 SetFilePointer
                          4C SetEndOfFile
                          2D GetFileSizeEx
                          3F GetVolumeInformationW
                          59 WriteFile
                           6 CreateFileW
                          16 FindFirstVolumeW

    api-ms-win-core-errorhandling-l1-1-0.dll
             180004188 Import Address Table
             180005630 Import Name Table
                     0 time date stamp
                     0 Index of first forwarder reference

                          11 UnhandledExceptionFilter
                           5 GetLastError
                           F SetUnhandledExceptionFilter

    api-ms-win-core-handle-l1-1-0.dll
             180004218 Import Address Table
             1800056C0 Import Name Table
                     0 time date stamp
                     0 Index of first forwarder reference

                           0 CloseHandle

    api-ms-win-core-sysinfo-l1-1-0.dll
             1800042E8 Import Address Table
             180005790 Import Name Table
                     0 time date stamp
                     0 Index of first forwarder reference

                          18 GetTickCount
                          14 GetSystemTimeAsFileTime
                           5 GetLocalTime
                          1E GetWindowsDirectoryW

    api-ms-win-security-sddl-l1-1-0.dll
             180004328 Import Address Table
             1800057D0 Import Name Table
                     0 time date stamp
                     0 Index of first forwarder reference

                           2 ConvertStringSecurityDescriptorToSecurityDescriptorW
                           0 ConvertSecurityDescriptorToStringSecurityDescriptorW

    api-ms-win-core-heap-l2-1-0.dll
             180004228 Import Address Table
             1800056D0 Import Name Table
                     0 time date stamp
                     0 Index of first forwarder reference

                           3 LocalFree
                           2 LocalAlloc

    api-ms-win-security-base-l1-1-0.dll
             180004310 Import Address Table
             1800057B8 Import Name Table
                     0 time date stamp
                     0 Index of first forwarder reference

                          36 GetSecurityDescriptorControl
                          37 GetSecurityDescriptorDacl

    api-ms-win-core-io-l1-1-0.dll
             180004240 Import Address Table
             1800056E8 Import Name Table
                     0 time date stamp
                     0 Index of first forwarder reference

                           4 DeviceIoControl

    api-ms-win-core-registry-l1-1-0.dll
             180004298 Import Address Table
             180005740 Import Name Table
                     0 time date stamp
                     0 Index of first forwarder reference

                           0 RegCloseKey
                          23 RegQueryValueExW
                          1E RegOpenKeyExW

    api-ms-win-core-file-l1-2-0.dll
             180004208 Import Address Table
             1800056B0 Import Name Table
                     0 time date stamp
                     0 Index of first forwarder reference

                          42 GetVolumePathNamesForVolumeNameW

    api-ms-win-core-libraryloader-l1-2-0.dll
             180004250 Import Address Table
             1800056F8 Import Name Table
                     0 time date stamp
                     0 Index of first forwarder reference

                           1 DisableThreadLibraryCalls

    api-ms-win-core-synch-l1-2-0.dll
             1800042D8 Import Address Table
             180005780 Import Name Table
                     0 time date stamp
                     0 Index of first forwarder reference

                          2D Sleep

    api-ms-win-core-rtlsupport-l1-1-0.dll
             1800042B8 Import Address Table
             180005760 Import Name Table
                     0 time date stamp
                     0 Index of first forwarder reference

                          10 RtlVirtualUnwind
                           A RtlLookupFunctionEntry
                           2 RtlCaptureContext

    api-ms-win-core-processthreads-l1-1-0.dll
             180004260 Import Address Table
             180005708 Import Name Table
                     0 time date stamp
                     0 Index of first forwarder reference

                           C GetCurrentProcess
                          11 GetCurrentThreadId
                           D GetCurrentProcessId
                          4D TerminateProcess

    api-ms-win-core-profile-l1-1-0.dll
             180004288 Import Address Table
             180005730 Import Name Table
                     0 time date stamp
                     0 Index of first forwarder reference

                           0 QueryPerformanceCounter

    ADVAPI32.dll
             180004160 Import Address Table
             180005608 Import Name Table
                     0 time date stamp
                     0 Index of first forwarder reference

                         142 GetNamedSecurityInfoW
                         2D9 SetNamedSecurityInfoW

    SHLWAPI.dll
             180004178 Import Address Table
             180005620 Import Name Table
                     0 time date stamp
                     0 Index of first forwarder reference

                             Ordinal   437

  Summary

        1000 .data
        1000 .pdata
        2000 .rdata
        1000 .reloc
        1000 .rsrc
        3000 .text
