Microsoft (R) COFF/PE Dumper Version 14.29.30137.0
Copyright (C) Microsoft Corporation.  All rights reserved.


Dump of file C:\Windows\System32\gpscript.exe

File Type: EXECUTABLE IMAGE

  Image has the following dependencies:

    api-ms-win-core-file-l1-1-0.dll
    api-ms-win-core-registry-l1-1-0.dll
    api-ms-win-core-errorhandling-l1-1-0.dll
    api-ms-win-core-processthreads-l1-1-0.dll
    api-ms-win-core-processenvironment-l1-1-0.dll
    api-ms-win-core-synch-l1-1-0.dll
    api-ms-win-core-heap-l2-1-0.dll
    api-ms-win-core-sysinfo-l1-1-0.dll
    api-ms-win-core-handle-l1-1-0.dll
    api-ms-win-core-libraryloader-l1-2-0.dll
    api-ms-win-core-string-l1-1-0.dll
    api-ms-win-eventing-provider-l1-1-0.dll
    api-ms-win-core-heap-l1-1-0.dll
    USER32.dll
    msvcrt.dll
    ntdll.dll
    api-ms-win-core-debug-l1-1-0.dll
    api-ms-win-security-base-l1-1-0.dll
    api-ms-win-security-sddl-l1-1-0.dll
    api-ms-win-core-synch-l1-2-0.dll
    api-ms-win-core-profile-l1-1-0.dll

  Section contains the following imports:

    api-ms-win-core-file-l1-1-0.dll
             140007C80 Import Address Table
             14000AB90 Import Name Table
                     0 time date stamp
                     0 Index of first forwarder reference

                          5E WriteFile
                          58 SetFilePointer
                          2C GetFileAttributesExW
                           7 CreateFileW
                           2 CompareFileTime
                           4 CreateDirectoryW

    api-ms-win-core-registry-l1-1-0.dll
             140007DB8 Import Address Table
             14000ACC8 Import Name Table
                     0 time date stamp
                     0 Index of first forwarder reference

                          2E RegSetValueExW
                          21 RegQueryInfoKeyW
                          1C RegOpenCurrentUser
                           0 RegCloseKey
                          1E RegOpenKeyExW
                          25 RegQueryValueExW

    api-ms-win-core-errorhandling-l1-1-0.dll
             140007C58 Import Address Table
             14000AB68 Import Name Table
                     0 time date stamp
                     0 Index of first forwarder reference

                           F SetUnhandledExceptionFilter
                           D SetLastError
                           5 GetLastError
                          11 UnhandledExceptionFilter

    api-ms-win-core-processthreads-l1-1-0.dll
             140007D48 Import Address Table
             14000AC58 Import Name Table
                     0 time date stamp
                     0 Index of first forwarder reference

                          34 OpenProcessToken
                          22 GetStartupInfoW
                           D GetCurrentProcessId
                          10 GetCurrentThread
                           C GetCurrentProcess
                          55 TerminateProcess
                           3 CreateProcessW
                          13 GetExitCodeProcess
                          11 GetCurrentThreadId
                          36 OpenThreadToken
                          52 SetThreadToken

    api-ms-win-core-processenvironment-l1-1-0.dll
             140007D20 Import Address Table
             14000AC30 Import Name Table
                     0 time date stamp
                     0 Index of first forwarder reference

                           1 ExpandEnvironmentStringsW
                          12 SetCurrentDirectoryW
                          15 SetEnvironmentVariableW
                           B GetEnvironmentVariableW

    api-ms-win-core-synch-l1-1-0.dll
             140007E00 Import Address Table
             14000AD10 Import Name Table
                     0 time date stamp
                     0 Index of first forwarder reference

                          1A InitializeCriticalSectionEx
                           F DeleteCriticalSection
                          36 WaitForSingleObject

    api-ms-win-core-heap-l2-1-0.dll
             140007CE0 Import Address Table
             14000ABF0 Import Name Table
                     0 time date stamp
                     0 Index of first forwarder reference

                           3 LocalFree
                           2 LocalAlloc

    api-ms-win-core-sysinfo-l1-1-0.dll
             140007E30 Import Address Table
             14000AD40 Import Name Table
                     0 time date stamp
                     0 Index of first forwarder reference

                           5 GetLocalTime
                          13 GetSystemTime
                          1A GetTickCount
                           F GetSystemDirectoryW
                          16 GetSystemTimeAsFileTime

    api-ms-win-core-handle-l1-1-0.dll
             140007CB8 Import Address Table
             14000ABC8 Import Name Table
                     0 time date stamp
                     0 Index of first forwarder reference

                           2 DuplicateHandle
                           0 CloseHandle

    api-ms-win-core-libraryloader-l1-2-0.dll
             140007CF8 Import Address Table
             14000AC08 Import Name Table
                     0 time date stamp
                     0 Index of first forwarder reference

                          19 LoadLibraryExW
                          15 GetModuleHandleW
                           D FreeLibrary
                          16 GetProcAddress

    api-ms-win-core-string-l1-1-0.dll
             140007DF0 Import Address Table
             14000AD00 Import Name Table
                     0 time date stamp
                     0 Index of first forwarder reference

                           2 CompareStringW

    api-ms-win-eventing-provider-l1-1-0.dll
             140007E60 Import Address Table
             14000AD70 Import Name Table
                     0 time date stamp
                     0 Index of first forwarder reference

                           5 EventUnregister
                           9 EventWriteTransfer
                           3 EventRegister
                           4 EventSetInformation

    api-ms-win-core-heap-l1-1-0.dll
             140007CD0 Import Address Table
             14000ABE0 Import Name Table
                     0 time date stamp
                     0 Index of first forwarder reference

                           A HeapSetInformation

    USER32.dll
             140007C30 Import Address Table
             14000AB40 Import Name Table
                     0 time date stamp
                     0 Index of first forwarder reference

                         3CF UpdatePerUserSystemParameters
                         1C9 GetSystemMetrics

    msvcrt.dll
             140007EB8 Import Address Table
             14000ADC8 Import Name Table
                     0 time date stamp
                     0 Index of first forwarder reference

                         376 _vsnwprintf
                         493 malloc
                          A2 __wargv
                          C8 _callnewh
                          99 __setusermatherr
                          CA _cexit
                           A ??0exception@@QEAA@AEBQEBD@Z
                          63 __CxxFrameHandler4
                         117 _exit
                           B ??0exception@@QEAA@AEBQEBDH@Z
                          7A __argc
                           C ??0exception@@QEAA@AEBV0@@Z
                         2AA _purecall
                         189 _initterm
                          11 ??1exception@@UEAA@XZ
                         4A3 memset
                          5E __C_specific_handler
                          36 ?what@exception@@UEBAPEBDXZ
                          12 ??1type_info@@UEAA@XZ
                         29C _onexit
                         43F exit
                          84 __dllonexit
                         34E _unlock
                          97 __set_app_type
                          34 ?terminate@@YAXXZ
                         1F2 _lock
                         4A1 memmove
                          DB _commode
                         130 _fmode
                          A6 __wgetmainargs
                          B7 _amsg_exit
                          5A _XcptFilter
                          50 _CxxThrowException
                         1E5 _itow
                         49F memcpy
                          14 ??3@YAXPEAX@Z
                          62 __CxxFrameHandler3
                         38F _wcmdln

    ntdll.dll
             140007FF0 Import Address Table
             14000AF00 Import Name Table
                     0 time date stamp
                     0 Index of first forwarder reference

                         64E RtlVirtualUnwind
                         509 RtlLookupFunctionEntry
                         305 RtlCaptureContext
                         346 RtlCopySid
                         4F2 RtlLengthSid

    api-ms-win-core-debug-l1-1-0.dll
             140007C48 Import Address Table
             14000AB58 Import Name Table
                     0 time date stamp
                     0 Index of first forwarder reference

                           7 OutputDebugStringW

    api-ms-win-security-base-l1-1-0.dll
             140007E88 Import Address Table
             14000AD98 Import Name Table
                     0 time date stamp
                     0 Index of first forwarder reference

                          2C EqualSid
                          45 ImpersonateLoggedOnUser
                          42 GetTokenInformation

    api-ms-win-security-sddl-l1-1-0.dll
             140007EA8 Import Address Table
             14000ADB8 Import Name Table
                     0 time date stamp
                     0 Index of first forwarder reference

                           1 ConvertSidToStringSidW

    api-ms-win-core-synch-l1-2-0.dll
             140007E20 Import Address Table
             14000AD30 Import Name Table
                     0 time date stamp
                     0 Index of first forwarder reference

                          2D Sleep

    api-ms-win-core-profile-l1-1-0.dll
             140007DA8 Import Address Table
             14000ACB8 Import Name Table
                     0 time date stamp
                     0 Index of first forwarder reference

                           0 QueryPerformanceCounter

  Summary

        2000 .data
        1000 .pdata
        5000 .rdata
        1000 .reloc
        1000 .rsrc
        6000 .text
