Microsoft (R) COFF/PE Dumper Version 14.29.30137.0
Copyright (C) Microsoft Corporation.  All rights reserved.


Dump of file C:\Windows\System32\quser.exe

File Type: EXECUTABLE IMAGE

  Image has the following dependencies:

    WINSTA.dll
    UTILDLL.dll
    USER32.dll
    KERNEL32.dll
    msvcrt.dll

  Section contains the following imports:

    WINSTA.dll
             1400052D8 Import Address Table
             140006170 Import Name Table
                     0 time date stamp
                     0 Index of first forwarder reference

                          66 WinStationQueryInformationW
                          31 WinStationFreeMemory
                          2B WinStationEnumerateW
                          5F WinStationOpenServerW

    UTILDLL.dll
             1400052C0 Import Address Table
             140006158 Import Name Table
                     0 time date stamp
                     0 Index of first forwarder reference

                           E GetUnknownString
                          1C StrConnectState

    USER32.dll
             1400052B0 Import Address Table
             140006148 Import Name Table
                     0 time date stamp
                     0 Index of first forwarder reference

                         268 LoadStringW

    KERNEL32.dll
             140005150 Import Address Table
             140005FE8 Import Name Table
                     0 time date stamp
                     0 Index of first forwarder reference

                         59F SetUnhandledExceptionFilter
                         230 GetCurrentProcess
                         5BF TerminateProcess
                         5E1 UnhandledExceptionFilter
                         308 GetSystemTimeAsFileTime
                         218 GetConsoleOutputCP
                         594 SetThreadUILanguage
                         27B GetLastError
                         182 FileTimeToSystemTime
                         352 GlobalAlloc
                         359 GlobalFree
                         372 HeapSetInformation
                         181 FileTimeToLocalFileTime
                         32F GetTimeFormatW
                         632 WideCharToMultiByte
                         23B GetDateFormatW
                         560 SetLastError
                         2F1 GetStdHandle
                         500 RtlVirtualUnwind
                         1BF FormatMessageW
                         3E5 LoadLibraryW
                         645 WriteConsoleW
                         293 GetModuleHandleW
                         1C3 FreeLibrary
                         268 GetFileType
                         1EF GetCommandLineW
                         3EB LocalAlloc
                         3F0 LocalFree
                         5F5 VerSetConditionMask
                         5F9 VerifyVersionInfoW
                         198 FindFirstFileW
                         1A4 FindNextFileW
                         18D FindClose
                         25F GetFileAttributesW
                         4F9 RtlLookupFunctionEntry
                         235 GetCurrentThreadId
                         231 GetCurrentProcessId
                         46C QueryPerformanceCounter
                         658 __chkstk
                         4F1 RtlCaptureContext
                         410 MultiByteToWideChar
                         32A GetTickCount
                         5AF Sleep

    msvcrt.dll
             140005300 Import Address Table
             140006198 Import Name Table
                     0 time date stamp
                     0 Index of first forwarder reference

                         507 vswprintf_s
                         50E wcschr
                         459 free
                         4FF vfwprintf
                         462 fwprintf
                         493 malloc
                         525 wcstol
                         528 wcstoul
                         3A1 _wcsnicmp
                         480 iswdigit
                         392 _wcsdup
                          5A _XcptFilter
                          B7 _amsg_exit
                          88 __getmainargs
                          97 __set_app_type
                         43F exit
                         117 _exit
                          CA _cexit
                          99 __setusermatherr
                         189 _initterm
                          5E __C_specific_handler
                         130 _fmode
                          DB _commode
                          34 ?terminate@@YAXXZ
                          8A __iob_func
                         344 _ultoa
                         3F7 _wsetlocale
                         4E9 swprintf_s
                         452 fprintf
                         39B _wcslwr
                         512 wcscpy_s
                         4BE setlocale
                         49F memcpy
                         4A1 memmove
                         4A3 memset
                         50D wcscat_s
                         52D wprintf
                         50F wcscmp

  Summary

        2000 .data
        1000 .pdata
        2000 .rdata
        1000 .reloc
        1000 .rsrc
        4000 .text
