Microsoft (R) COFF/PE Dumper Version 14.29.30137.0
Copyright (C) Microsoft Corporation.  All rights reserved.


Dump of file C:\Windows\System32\qwinsta.exe

File Type: EXECUTABLE IMAGE

  Image has the following dependencies:

    WINSTA.dll
    UTILDLL.dll
    USER32.dll
    KERNEL32.dll
    msvcrt.dll

  Section contains the following imports:

    WINSTA.dll
             1400062A0 Import Address Table
             140007508 Import Name Table
                     0 time date stamp
                     0 Index of first forwarder reference

                          5F WinStationOpenServerW
                          27 WinStationEnumerateContainerSessions
                          2B WinStationEnumerateW
                          31 WinStationFreeMemory
                          5E WinStationOpenServerExW
                          39 WinStationGetAllSessionsEx
                          4D WinStationGetTermSrvCountersValue
                          2F WinStationFreeEXECENVDATAEX
                          66 WinStationQueryInformationW

    UTILDLL.dll
             140006288 Import Address Table
             1400074F0 Import Name Table
                     0 time date stamp
                     0 Index of first forwarder reference

                          1C StrConnectState
                          1B StrAsyncConnectState

    USER32.dll
             140006278 Import Address Table
             1400074E0 Import Name Table
                     0 time date stamp
                     0 Index of first forwarder reference

                         268 LoadStringW

    KERNEL32.dll
             140006150 Import Address Table
             1400073B8 Import Name Table
                     0 time date stamp
                     0 Index of first forwarder reference

                         4F9 RtlLookupFunctionEntry
                         5E1 UnhandledExceptionFilter
                         4F1 RtlCaptureContext
                         235 GetCurrentThreadId
                         5AF Sleep
                         59F SetUnhandledExceptionFilter
                         500 RtlVirtualUnwind
                         308 GetSystemTimeAsFileTime
                         230 GetCurrentProcess
                         5BF TerminateProcess
                         218 GetConsoleOutputCP
                         594 SetThreadUILanguage
                         27B GetLastError
                         372 HeapSetInformation
                         632 WideCharToMultiByte
                         560 SetLastError
                         2F1 GetStdHandle
                         410 MultiByteToWideChar
                         1BF FormatMessageW
                         3E5 LoadLibraryW
                         645 WriteConsoleW
                         293 GetModuleHandleW
                         1C3 FreeLibrary
                         268 GetFileType
                         1EF GetCommandLineW
                         3EB LocalAlloc
                         3F0 LocalFree
                         5F5 VerSetConditionMask
                         5F9 VerifyVersionInfoW
                         198 FindFirstFileW
                         1A4 FindNextFileW
                         18D FindClose
                         25F GetFileAttributesW
                         46C QueryPerformanceCounter
                         231 GetCurrentProcessId
                         32A GetTickCount

    msvcrt.dll
             1400062F0 Import Address Table
             140007558 Import Name Table
                     0 time date stamp
                     0 Index of first forwarder reference

                         3F7 _wsetlocale
                         344 _ultoa
                         507 vswprintf_s
                         50E wcschr
                         459 free
                         4FF vfwprintf
                         462 fwprintf
                         493 malloc
                         525 wcstol
                         528 wcstoul
                         3A1 _wcsnicmp
                         480 iswdigit
                         392 _wcsdup
                          5A _XcptFilter
                          B7 _amsg_exit
                          88 __getmainargs
                          97 __set_app_type
                         43F exit
                         117 _exit
                          CA _cexit
                          99 __setusermatherr
                         189 _initterm
                          5E __C_specific_handler
                         130 _fmode
                          DB _commode
                          34 ?terminate@@YAXXZ
                         452 fprintf
                         39B _wcslwr
                         50D wcscat_s
                         512 wcscpy_s
                         2E3 _snwprintf_s
                         446 fflush
                         52D wprintf
                          8A __iob_func
                         49F memcpy
                         4A1 memmove
                         4A3 memset
                         4E9 swprintf_s
                         4BE setlocale
                         50F wcscmp

  Summary

        6000 .data
        1000 .pdata
        2000 .rdata
        1000 .reloc
        1000 .rsrc
        5000 .text
