Microsoft (R) COFF/PE Dumper Version 14.29.30137.0
Copyright (C) Microsoft Corporation.  All rights reserved.


Dump of file C:\Windows\System32\wow64base.dll

File Type: DLL

  Image has the following dependencies:

    ntdll.dll
    wow64.dll

  Section contains the following exports for wow64base.dll

    00000000 characteristics
    A3BF9CB9 time date stamp
        0.00 version
           1 ordinal base
           1 number of functions
           1 number of names

    ordinal hint RVA      name

          1    0 00004090 sdwhbase

  Section contains the following imports:

    ntdll.dll
             180004280 Import Address Table
             180004C68 Import Name Table
                     0 time date stamp
                     0 Index of first forwarder reference

                         8FB __C_specific_handler
                          6D LdrDisableThreadCalloutsForDll
                         284 NtTerminateProcess
                         305 RtlCaptureContext
                         509 RtlLookupFunctionEntry
                         64E RtlVirtualUnwind
                         618 RtlUnhandledExceptionFilter
                          1A CsrClientCallServer
                          17 CsrCaptureMessageMultiUnicodeStringsInPlace
                          23 DbgPrintEx
                         37A RtlDecodeSystemPointer
                         3BF RtlEncodeSystemPointer
                          80 LdrGetProcedureAddress
                          14 CsrAllocateCaptureBuffer
                          15 CsrAllocateMessagePointer
                         636 RtlUpcaseUnicodeString
                         349 RtlCopyUnicodeString
                         489 RtlInitUnicodeString
                          1C CsrFreeCaptureBuffer
                          16 CsrCaptureMessageBuffer
                          18 CsrCaptureMessageString
                         35A RtlCreateProcessParametersEx
                         3A0 RtlDestroyProcessParameters
                         153 NtDeviceIoControlFile
                         2EF RtlAppendUnicodeToString
                         2EE RtlAppendUnicodeStringToString
                          8A LdrLoadDll
                          67 LdrAddRefDll
                         96E memcpy

    wow64.dll
             180004370 Import Address Table
             180004D58 Import Name Table
                     0 time date stamp
                     0 Index of first forwarder reference

                           0 RedirectDosPath
                           2 RedirectObjectName
                           1 RedirectDosPathUnicode

  Summary

        1000 .data
        1000 .pdata
        2000 .rdata
        1000 .reloc
        3000 .text
