Microsoft (R) COFF/PE Dumper Version 14.29.30137.0
Copyright (C) Microsoft Corporation.  All rights reserved.


Dump of file C:\Windows\WinSxS\wow64_microsoft-windows-imagingengine_31bf3856ad364e35_10.0.22621.1_none_97d371e35639f61e\ImagingEngine.dll

File Type: DLL

  Section contains the following exports for ImagingEngine.dll

    00000000 characteristics
     E52E827 time date stamp
        0.00 version
           1 ordinal base
           2 number of functions
           2 number of names

    ordinal hint RVA      name

          1    0 00037ED0 DllCanUnloadNow
          2    1 00037EF0 DllGetClassObject

  Image has the following dependencies:

    api-ms-win-crt-runtime-l1-1-0.dll
    api-ms-win-crt-private-l1-1-0.dll
    api-ms-win-crt-string-l1-1-0.dll
    KERNEL32.dll
    ADVAPI32.dll
    PhotoBase.dll
    OLEAUT32.dll
    api-ms-win-crt-math-l1-1-0.dll
    SHLWAPI.dll
    GDI32.dll
    USER32.dll
    ole32.dll
    mscms.dll
    d3d9.dll

  Section contains the following imports:

    api-ms-win-crt-runtime-l1-1-0.dll
              101D8378 Import Address Table
              101D8888 Import Name Table
                     0 time date stamp
                     0 Index of first forwarder reference

                   39 _initterm_e
                   1C _controlfp
                   1B _control87
                   18 _clearfp
                   38 _initterm

    api-ms-win-crt-private-l1-1-0.dll
              101D8254 Import Address Table
              101D8764 Import Name Table
                     0 time date stamp
                     0 Index of first forwarder reference

                  111 _o__fpclass
                  163 _o__initialize_narrow_environment
                  164 _o__initialize_onexit_table
                  166 _o__invalid_parameter_noinfo
                  273 _o__purecall
                  280 _o__recalloc
                  281 _o__register_onexit_function
                  288 _o__seh_filter_dll
                  2A8 _o__strdup
                  2AC _o__stricmp
                   47 _o__CIsqrt
                  483 memmove
                  2EF _o__waccess
                  2FC _o__wcsicmp
                  306 _o__wcsnicmp
                  380 _o_atof
                  381 _o_atoi
                  387 _o_calloc
                  38A _o_ceil
                  3A4 _o_floor
                  3B1 _o_free
                  3C3 _o_isalnum
                  3C4 _o_isalpha
                  3C7 _o_isdigit
                  3CD _o_isspace
                  3DD _o_isxdigit
                  3FA _o_malloc
                  41B _o_qsort
                  438 _o_setlocale
                  452 _o_terminate
                  458 _o_tolower
                  459 _o_toupper
                  477 _o_wmemcpy_s
                   1C __current_exception
                   1D __current_exception_context
                   32 _except_handler4_common
                   46 _o__CIsinh
                   45 _o__CIsin
                   44 _o__CIpow
                   42 _o__CIlog
                   41 _o__CIfmod
                   40 _o__CIexp
                   3F _o__CIcosh
                   3E _o__CIcos
                   3D _o__CIatan2
                   3C _o__CIatan
                   3B _o__CIasin
                   3A _o__CIacos
                   BB _o__cexit
                   B9 _o__callnewh
                   B7 _o__beginthreadex
                  48A wcsrchr
                    1 _CxxThrowException
                   A2 _o__aligned_malloc
                   A1 _o__aligned_free
                   9A _o___stdio_common_vswprintf_s
                   98 _o___stdio_common_vswprintf
                   94 _o___stdio_common_vsprintf
                   EA _o__execute_onexit_table
                   E8 _o__errno
                   88 _o___std_type_info_destroy_list
                   87 _o___std_exception_destroy
                   86 _o___std_exception_copy
                   CF _o__crt_atexit
                   C8 _o__configure_narrow_argv
                   49 _o__CItanh
                   48 _o__CItan
                  485 strchr
                   26 __std_terminate
                   10 __CxxFrameHandler3
                  481 memcmp
                  482 memcpy

    api-ms-win-crt-string-l1-1-0.dll
              101D8390 Import Address Table
              101D88A0 Import Name Table
                     0 time date stamp
                     0 Index of first forwarder reference

                   AA wcspbrk
                   83 memset

    KERNEL32.dll
              101D8074 Import Address Table
              101D8584 Import Name Table
                     0 time date stamp
                     0 Index of first forwarder reference

                  2FD GetSystemInfo
                  28C GetModuleHandleA
                  3E4 LoadLibraryW
                  28B GetModuleFileNameW
                  436 OutputDebugStringA
                  5EE VirtualAlloc
                  5F1 VirtualFree
                  367 HeapFree
                  3E2 LoadLibraryExA
                  141 EncodePointer
                  363 HeapAlloc
                  11B DecodePointer
                  2CD GetProcessHeap
                  1B4 FlushInstructionCache
                  2C6 GetProcAddress
                  38D InterlockedPushEntrySList
                  4E8 ResetEvent
                  37D InitializeCriticalSectionAndSpinCount
                  65A lstrcmpiA
                  626 WideCharToMultiByte
                  5FF WaitForSingleObject
                  538 SetEvent
                  4EF ResumeThread
                   CE CreateEventW
                  3FE MapViewOfFile
                  5D8 UnmapViewOfFile
                  277 GetLastError
                   D7 CreateFileMappingW
                  127 DeleteFileW
                  310 GetTempPath2W
                  30E GetTempFileNameW
                   DA CreateFileW
                   94 CloseHandle
                  555 SetLastError
                  483 RaiseException
                  46E QueryPerformanceFrequency
                  5A4 Sleep
                  1A9 FindResourceExW
                  3E7 LoadResource
                  3FB LockResource
                  5A3 SizeofResource
                  145 EnterCriticalSection
                  3DD LeaveCriticalSection
                  38C InterlockedPopEntrySList
                  26B GetFullPathNameA
                  3E1 LoadLibraryA
                   D2 CreateFileA
                   D3 CreateFileMappingA
                  260 GetFileSize
                  5B4 TerminateProcess
                  22C GetCurrentProcess
                  28F GetModuleHandleW
                  3A5 IsProcessorFeaturePresent
                  594 SetUnhandledExceptionFilter
                  5D5 UnhandledExceptionFilter
                  39D IsDebuggerPresent
                  381 InitializeSListHead
                  303 GetSystemTimeAsFileTime
                  46D QueryPerformanceCounter
                  130 DisableThreadLibraryCalls
                  5B0 SystemTimeToFileTime
                  301 GetSystemTime
                  22D GetCurrentProcessId
                  231 GetCurrentThreadId
                  122 DeleteCriticalSection
                  37C InitializeCriticalSection
                  600 WaitForSingleObjectEx

    ADVAPI32.dll
              101D8000 Import Address Table
              101D8510 Import Name Table
                     0 time date stamp
                     0 Index of first forwarder reference

                  28E RegQueryValueExA
                  28F RegQueryValueExW
                  31C TraceEvent
                  282 RegOpenKeyExW
                  15E GetTraceLoggerHandle
                  15D GetTraceEnableLevel
                  15C GetTraceEnableFlags
                  2AB RegisterTraceGuidsW
                  32B UnregisterTraceGuids
                  251 RegCloseKey
                  281 RegOpenKeyExA

    PhotoBase.dll
              101D8194 Import Address Table
              101D86A4 Import Name Table
                     0 time date stamp
                     0 Index of first forwarder reference

                   13 ?BaseAtlThrow@ATL@@YGXJ@Z
                   28 ?Initialize@Base@@YGXXZ
                   39 ?Throw@Base@@YGXJ@Z
                   2C ?New@BasePrivate@@YAPAXI_N@Z
                    5 ??1Exception@Base@@UAE@XZ
                   22 ?GetBaseStringManager@String@Base@@SGAAVCAtlStringMgr@ATL@@XZ
                   20 ?GetAssertCallback@Base@@YGAAP6G_NPBDH0@ZXZ
                   3A ?ThrowLastError@Base@@YGXXZ
                   2B ?IsVistaOrGreater@OS@Base@@YG_NXZ
                   1E ?Delete@BasePrivate@@YAXPAX@Z

    OLEAUT32.dll
              101D8184 Import Address Table
              101D8694 Import Name Table
                     0 time date stamp
                     0 Index of first forwarder reference

                      Ordinal     4
                      Ordinal     6
                      Ordinal     2

    api-ms-win-crt-math-l1-1-0.dll
              101D8248 Import Address Table
              101D8758 Import Name Table
                     0 time date stamp
                     0 Index of first forwarder reference

                   53 _isnan
                   4E _finite

    SHLWAPI.dll
              101D81C0 Import Address Table
              101D86D0 Import Name Table
                     0 time date stamp
                     0 Index of first forwarder reference

                   8F PathRemoveFileSpecW
                   49 PathFileExistsW

    GDI32.dll
              101D8030 Import Address Table
              101D8540 Import Name Table
                     0 time date stamp
                     0 Index of first forwarder reference

                  330 RectInRegion
                   31 CreateCompatibleDC
                   38 CreateDIBitmap
                   13 BitBlt
                  374 SelectObject
                  18F DeleteObject
                   54 CreateRectRgnIndirect
                   53 CreateRectRgn
                   22 CombineRgn
                  2CD GetRgnBox
                  39D SetRectRgn
                  18C DeleteDC
                   34 CreateDCW
                  28B GetDeviceCaps
                  2A9 GetICMProfileW
                  2CB GetRegionData

    USER32.dll
              101D81CC Import Address Table
              101D86DC Import Name Table
                     0 time date stamp
                     0 Index of first forwarder reference

                  378 SetWindowLongW
                  220 InvalidateRect
                  131 GetClientRect
                  1E7 GetWindowLongW
                  221 InvalidateRgn
                   FE EnumDisplayMonitors
                  3B8 UnregisterClassA
                  308 ScreenToClient
                  1C3 GetSysColor
                  30C ScrollWindowEx
                   11 BeginPaint
                  2FB ReleaseDC
                  141 GetDC
                  244 IsWindow
                  18B GetMonitorInfoW
                   B5 DestroyWindow
                  1D5 GetUpdateRgn
                  31C SetCapture
                   F4 EndPaint
                   76 CreateWindowExW
                  12A GetClassInfoExW
                  2FA ReleaseCapture
                  255 LoadCursorW
                  2DB RegisterClassExW
                  1C7 GetSystemMetrics
                   A7 DefWindowProcW
                   21 CallWindowProcW
                  1EE GetWindowRect
                  140 GetCursorPos
                  326 SetCursor

    ole32.dll
              101D83D0 Import Address Table
              101D88E0 Import Name Table
                     0 time date stamp
                     0 Index of first forwarder reference

                   28 CoCreateInstance
                  195 PropVariantClear

    mscms.dll
              101D83A4 Import Address Table
              101D88B4 Import Name Table
                     0 time date stamp
                     0 Index of first forwarder reference

                   1E CreateMultiProfileTransform
                   36 GetColorProfileHeader
                   56 OpenColorProfileW
                   35 GetColorProfileFromHandle
                   54 IsColorProfileValid
                   62 TranslateBitmapBits
                   26 DeleteColorTransform
                   32 GetColorDirectoryW
                    4 CloseColorProfile
                   33 GetColorProfileElement

    d3d9.dll
              101D839C Import Address Table
              101D88AC Import Name Table
                     0 time date stamp
                     0 Index of first forwarder reference

                    A Direct3DCreate9

  Summary

        6000 .data
        2000 .idata
       11000 .reloc
        1000 .rsrc
      1D1000 .text
