Microsoft (R) COFF/PE Dumper Version 14.29.30137.0
Copyright (C) Microsoft Corporation.  All rights reserved.


Dump of file C:\Windows\SystemApps\Microsoft.Windows.FilePicker_cw5n1h2txyewy\FilePicker.exe

File Type: EXECUTABLE IMAGE

  Image has the following dependencies:

    ext-ms-win-session-usermgr-l1-1-0.dll
    api-ms-win-core-debug-l1-1-0.dll
    api-ms-win-core-processthreads-l1-1-0.dll
    api-ms-win-core-localization-l1-2-0.dll
    api-ms-win-eventing-provider-l1-1-0.dll
    api-ms-win-core-heap-l1-1-0.dll
    api-ms-win-core-synch-l1-2-0.dll
    api-ms-win-core-synch-l1-1-0.dll
    api-ms-win-core-errorhandling-l1-1-0.dll
    api-ms-win-core-string-l1-1-0.dll
    api-ms-win-core-libraryloader-l1-2-0.dll
    api-ms-win-core-threadpool-l1-2-0.dll
    api-ms-win-core-handle-l1-1-0.dll
    ntdll.dll
    api-ms-win-security-base-l1-1-0.dll
    api-ms-win-security-base-l1-2-0.dll
    api-ms-win-core-com-l1-1-0.dll
    api-ms-win-crt-private-l1-1-0.dll
    api-ms-win-crt-runtime-l1-1-0.dll
    msvcp_win.dll
    wincorlib.DLL
    api-ms-win-core-winrt-error-l1-1-0.dll
    api-ms-win-core-winrt-error-l1-1-1.dll
    api-ms-win-core-winrt-string-l1-1-0.dll
    api-ms-win-core-processthreads-l1-1-1.dll
    api-ms-win-core-profile-l1-1-0.dll
    api-ms-win-core-sysinfo-l1-1-0.dll
    api-ms-win-core-interlocked-l1-1-0.dll
    api-ms-win-core-util-l1-1-0.dll
    api-ms-win-crt-string-l1-1-0.dll

  Section contains the following imports:

    ext-ms-win-session-usermgr-l1-1-0.dll
             14009D4D0 Import Address Table
             1400BD4C8 Import Name Table
                     0 time date stamp
                     0 Index of first forwarder reference

                          1C UMgrQueryUserToken

    api-ms-win-core-debug-l1-1-0.dll
             14009D028 Import Address Table
             1400BD020 Import Name Table
                     0 time date stamp
                     0 Index of first forwarder reference

                           5 IsDebuggerPresent
                           7 OutputDebugStringW
                           4 DebugBreak

    api-ms-win-core-processthreads-l1-1-0.dll
             14009D0E8 Import Address Table
             1400BD0E0 Import Name Table
                     0 time date stamp
                     0 Index of first forwarder reference

                          11 GetCurrentThreadId
                          22 GetStartupInfoW
                          55 TerminateProcess
                           C GetCurrentProcess
                           D GetCurrentProcessId

    api-ms-win-core-localization-l1-2-0.dll
             14009D0D8 Import Address Table
             1400BD0D0 Import Name Table
                     0 time date stamp
                     0 Index of first forwarder reference

                           9 FormatMessageW

    api-ms-win-eventing-provider-l1-1-0.dll
             14009D480 Import Address Table
             1400BD478 Import Name Table
                     0 time date stamp
                     0 Index of first forwarder reference

                           4 EventSetInformation
                           0 EventActivityIdControl
                           5 EventUnregister
                           3 EventRegister
                           9 EventWriteTransfer

    api-ms-win-core-heap-l1-1-0.dll
             14009D080 Import Address Table
             1400BD078 Import Name Table
                     0 time date stamp
                     0 Index of first forwarder reference

                           6 HeapFree
                           0 GetProcessHeap
                           2 HeapAlloc

    api-ms-win-core-synch-l1-2-0.dll
             14009D1F0 Import Address Table
             1400BD1E8 Import Name Table
                     0 time date stamp
                     0 Index of first forwarder reference

                          14 InitOnceComplete
                          15 InitOnceExecuteOnce
                          13 InitOnceBeginInitialize

    api-ms-win-core-synch-l1-1-0.dll
             14009D148 Import Address Table
             1400BD140 Import Name Table
                     0 time date stamp
                     0 Index of first forwarder reference

                           F DeleteCriticalSection
                          11 EnterCriticalSection
                           1 AcquireSRWLockShared
                           9 CreateMutexExW
                          19 InitializeCriticalSectionAndSpinCount
                          26 ReleaseSemaphore
                          29 SetEvent
                           6 CreateEventW
                           B CreateSemaphoreExW
                          1D LeaveCriticalSection
                          25 ReleaseSRWLockShared
                          18 InitializeCriticalSection
                           0 AcquireSRWLockExclusive
                          21 OpenSemaphoreW
                          37 WaitForSingleObjectEx
                          23 ReleaseMutex
                          36 WaitForSingleObject
                          27 ResetEvent
                          1A InitializeCriticalSectionEx
                          24 ReleaseSRWLockExclusive

    api-ms-win-core-errorhandling-l1-1-0.dll
             14009D048 Import Address Table
             1400BD040 Import Name Table
                     0 time date stamp
                     0 Index of first forwarder reference

                           F SetUnhandledExceptionFilter
                           5 GetLastError
                           D SetLastError
                          11 UnhandledExceptionFilter

    api-ms-win-core-string-l1-1-0.dll
             14009D138 Import Address Table
             1400BD130 Import Name Table
                     0 time date stamp
                     0 Index of first forwarder reference

                           1 CompareStringOrdinal

    api-ms-win-core-libraryloader-l1-2-0.dll
             14009D0B0 Import Address Table
             1400BD0A8 Import Name Table
                     0 time date stamp
                     0 Index of first forwarder reference

                          16 GetProcAddress
                          14 GetModuleHandleExW
                          15 GetModuleHandleW
                          10 GetModuleFileNameA

    api-ms-win-core-threadpool-l1-2-0.dll
             14009D220 Import Address Table
             1400BD218 Import Name Table
                     0 time date stamp
                     0 Index of first forwarder reference

                          22 WaitForThreadpoolTimerCallbacks
                           6 CloseThreadpoolTimer
                           C CreateThreadpoolTimer
                          1A SetThreadpoolTimer

    api-ms-win-core-handle-l1-1-0.dll
             14009D070 Import Address Table
             1400BD068 Import Name Table
                     0 time date stamp
                     0 Index of first forwarder reference

                           0 CloseHandle

    ntdll.dll
             14009D6B8 Import Address Table
             1400BD6B0 Import Name Table
                     0 time date stamp
                     0 Index of first forwarder reference

                         64E RtlVirtualUnwind
                         509 RtlLookupFunctionEntry
                         305 RtlCaptureContext
                         20D NtQueryWnfStateData
                         42C RtlGetDeviceFamilyInfoEnum

    api-ms-win-security-base-l1-1-0.dll
             14009D4B0 Import Address Table
             1400BD4A8 Import Name Table
                     0 time date stamp
                     0 Index of first forwarder reference

                          23 CreateWellKnownSid

    api-ms-win-security-base-l1-2-0.dll
             14009D4C0 Import Address Table
             1400BD4B8 Import Name Table
                     0 time date stamp
                     0 Index of first forwarder reference

                          1C CheckTokenMembershipEx

    api-ms-win-core-com-l1-1-0.dll
             14009D000 Import Address Table
             1400BCFF8 Import Name Table
                     0 time date stamp
                     0 Index of first forwarder reference

                          1A CoGetContextToken
                          43 CoTaskMemFree
                          42 CoTaskMemAlloc
                           7 CoCreateFreeThreadedMarshaler

    api-ms-win-crt-private-l1-1-0.dll
             14009D2D8 Import Address Table
             1400BD2D0 Import Name Table
                     0 time date stamp
                     0 Index of first forwarder reference

                          5F _o___std_exception_destroy
                          6A _o___stdio_common_vsnprintf_s
                          70 _o___stdio_common_vswprintf
                          91 _o__callnewh
                          93 _o__cexit
                          9F _o__configthreadlocale
                          A0 _o__configure_narrow_argv
                          A7 _o__crt_atexit
                          C0 _o__errno
                          C7 _o__exit
                         111 _o__get_narrow_winmain_command_line
                         13C _o__initialize_narrow_environment
                         13D _o__initialize_onexit_table
                         13F _o__invalid_parameter_noinfo
                         140 _o__invalid_parameter_noinfo_noreturn
                         243 _o__purecall
                         251 _o__register_onexit_function
                         25A _o__seh_filter_exe
                         25C _o__set_app_type
                         25F _o__set_fmode
                         262 _o__set_new_mode
                         464 memmove
                         341 _o_abort
                         36D _o_exit
                         38D _o_free
                         3D8 _o_malloc
                         3FF _o_realloc
                         436 _o_terminate
                         44A _o_wcsncpy_s
                         451 _o_wcstol
                          13 __CxxFrameHandler4
                          2A __std_terminate
                         46D wcsstr
                         46C wcsrchr
                         467 strchr
                           C __C_specific_handler
                          20 __current_exception
                          21 __current_exception_context
                           1 _CxxThrowException
                          12 __CxxFrameHandler3
                         462 memcmp
                          5E _o___std_exception_copy
                          53 _o___p__commode
                         463 memcpy

    api-ms-win-crt-runtime-l1-1-0.dll
             14009D440 Import Address Table
             1400BD438 Import Name Table
                     0 time date stamp
                     0 Index of first forwarder reference

                          15 _c_exit
                          37 _initterm_e
                          36 _initterm
                          3D _register_thread_local_exe_atexit_callback

    msvcp_win.dll
             14009D4E0 Import Address Table
             1400BD4D8 Import Name Table
                     0 time date stamp
                     0 Index of first forwarder reference

                         20F ?_Init@locale@std@@CAPEAV_Locimp@12@_N@Z
                         28B ?_Xbad_alloc@std@@YAXXZ
                         131 ??Bid@locale@std@@QEAA_KXZ
                         3CE ?id@?$collate@_W@std@@2V0locale@2@A
                         1C6 ?_Getcoll@_Locinfo@std@@QEBA?AU_Collvec@@XZ
                         291 ?_Xregex_error@std@@YAXW4error_type@regex_constants@1@@Z
                         513 ?tolower@?$ctype@_W@std@@QEBAPEB_WPEA_WPEB_W@Z
                         514 ?tolower@?$ctype@_W@std@@QEBA_W_W@Z
                         3D1 ?id@?$ctype@_W@std@@2V0locale@2@A
                         1D5 ?_Getgloballocale@locale@std@@CAPEAV_Locimp@12@XZ
                          6D ??0_Lockit@std@@QEAA@H@Z
                          6C ??0_Locinfo@std@@QEAA@PEBD@Z
                          A5 ??1_Lockit@std@@QEAA@XZ
                          A4 ??1_Locinfo@std@@QEAA@XZ
                         19E ?_Decref@facet@locale@std@@UEAAPEAV_Facet_base@3@XZ
                         413 ?is@?$ctype@_W@std@@QEBA_NF_W@Z
                         1B8 ?_Getcat@?$ctype@_W@std@@SA_KPEAPEBVfacet@locale@2@PEBV42@@Z
                         1F2 ?_Incref@facet@locale@std@@UEAAXXZ
                         5C8 _Wcscoll
                         5C9 _Wcsxfrm
                         28D ?_Xinvalid_argument@std@@YAXPEBD@Z
                          AB ??1facet@locale@std@@MEAA@XZ
                          75 ??0facet@locale@std@@IEAA@_K@Z
                         296 ?__ExceptionPtrCopyException@@YAXPEAXPEBX1@Z
                         28E ?_Xlength_error@std@@YAXPEBD@Z
                         28F ?_Xout_of_range@std@@YAXPEBD@Z
                         264 ?_Reset@_ContextCallback@details@Concurrency@@AEAAXXZ
                         194 ?_Assign@_ContextCallback@details@Concurrency@@AEAAXPEAX@Z
                         19C ?_Capture@_ContextCallback@details@Concurrency@@AEAAXXZ
                         21F ?_IsCurrentOriginSTA@_ContextCallback@details@Concurrency@@CA_NXZ
                         299 ?__ExceptionPtrDestroy@@YAXPEAX@Z
                         295 ?__ExceptionPtrCopy@@YAXPEAXPEBX@Z
                         29A ?__ExceptionPtrRethrow@@YAXPEBX@Z
                         555 _Cnd_wait
                         589 _Mtx_unlock
                         585 _Mtx_lock
                         274 ?_Throw_C_error@std@@YAXH@Z
                         298 ?__ExceptionPtrCurrentException@@YAXPEAX@Z
                         297 ?__ExceptionPtrCreate@@YAXPEAX@Z
                         262 ?_ReportUnobservedException@details@Concurrency@@YAXXZ
                         190 ?ReportUnhandledError@_ExceptionHolder@details@Concurrency@@AEAAXXZ
                         220 ?_IsNonBlockingThread@_Task_impl_base@details@Concurrency@@SA_NXZ
                         25E ?_Release_chore@details@Concurrency@@YAXPEAU_Threadpool_chore@12@@Z
                         267 ?_Schedule_chore@details@Concurrency@@YAHPEAU_Threadpool_chore@12@@Z
                         19A ?_CallInContext@_ContextCallback@details@Concurrency@@QEBAXV?$function@$$A6AXXZ@std@@_N@Z
                         28C ?_Xbad_function_call@std@@YAXXZ
                         231 ?_LogScheduleTask@_TaskEventLogger@details@Concurrency@@QEAAX_N@Z
                         230 ?_LogCancelTask@_TaskEventLogger@details@Concurrency@@QEAAXXZ
                         54B _Cnd_broadcast
                         581 _Mtx_destroy_in_situ
                         54D _Cnd_destroy_in_situ
                         18E ?GetCurrentThreadId@platform@details@Concurrency@@YAJXZ
                         584 _Mtx_init_in_situ
                         234 ?_LogWorkItemCompleted@_TaskEventLogger@details@Concurrency@@QEAAXXZ
                         550 _Cnd_init_in_situ
                         233 ?_LogTaskExecutionCompleted@_TaskEventLogger@details@Concurrency@@QEAAXXZ
                         232 ?_LogTaskCompleted@_TaskEventLogger@details@Concurrency@@QEAAXXZ
                         235 ?_LogWorkItemStarted@_TaskEventLogger@details@Concurrency@@QEAAXXZ

    wincorlib.DLL
             14009D6E8 Import Address Table
             1400BD6E0 Import Name Table
                     0 time date stamp
                     0 Index of first forwarder reference

                          AF ?InitializeData@Details@Platform@@YAJH@Z
                          D5 ?UninitializeData@Details@Platform@@YAXH@Z
                          80 ?GetActivationFactoryByPCWSTR@@YAJPEAXAEAVGuid@Platform@@PEAPEAX@Z
                          DB ?__abi_FailFast@@YAXXZ
                          B4 ?ReCreateFromException@Details@Platform@@YAJPE$AAVException@2@@Z
                          9B ?GetIidsFn@@YAJHPEAKPEBU__s_GUID@@PEAPEAVGuid@Platform@@@Z
                          81 ?GetCmdArguments@Details@Platform@@YAPEAPEA_WPEAH@Z
                          BA ?ResolveWeakReference@Details@Platform@@YAPE$AAVObject@2@AEBU_GUID@@PEAPEAU__abi_IUnknown@@@Z
                          AD ?GetWeakReference@Details@Platform@@YAPEAU__abi_IUnknown@@QE$ADVObject@2@@Z
                          15 ??0GridLength@Xaml@UI@Windows@@QEAA@NW4GridUnitType@123@@Z
                          9D ?GetProxyImpl@Details@Platform@@YAJPEAUIUnknown@@AEBU_GUID@@0PEAPEAU3@@Z
                          B8 ?ReleaseInContextImpl@Details@Platform@@YAJPEAUIUnknown@@0@Z
                          EE ?__abi_cast_String_to_Object@__abi_details@@YAPE$AAVObject@Platform@@PE$AAVString@3@@Z
                           A ??0ChangedStateException@Platform@@QE$AAA@XZ
                          2A ??0OutOfMemoryException@Platform@@QE$AAA@XZ
                          19 ??0InvalidArgumentException@Platform@@QE$AAA@XZ
                          5B ?CreateException@Exception@Platform@@SAPE$AAV12@HPE$AAVString@2@@Z
                          F9 ?get@Message@Exception@Platform@@QE$AAAPE$AAVString@3@XZ
                          28 ??0OutOfBoundsException@Platform@@QE$AAA@XZ
                          F7 ?get@FullName@Type@Platform@@QE$AAAPE$AAVString@3@XZ
                          9A ?GetIBoxVtable@Details@Platform@@YAPEAXPEAX@Z
                          5C ?CreateValue@Details@Platform@@YAPE$AAVObject@2@W4TypeCode@2@PEBX@Z
                          9C ?GetObjectContext@Details@Platform@@YAPEAUIUnknown@@XZ
                          ED ?__abi_cast_Object_to_String@__abi_details@@YAPE$AAVString@Platform@@_NPE$AAVObject@3@@Z
                          20 ??0NullReferenceException@Platform@@QE$AAA@XZ
                          77 ?EventSourceGetTargetArrayEvent@Details@Platform@@YAPEAXPEAXIPEBXPEA_J@Z
                          78 ?EventSourceGetTargetArraySize@Details@Platform@@YAIPEAX@Z
                          76 ?EventSourceGetTargetArray@Details@Platform@@YAPEAXPEAXPEAUEventLock@12@@Z
                          99 ?GetIBoxArrayVtable@Details@Platform@@YAPEAXPEAX@Z
                           F ??0DisconnectedException@Platform@@QE$AAA@XZ
                           D ??0Delegate@Platform@@QE$AAA@XZ
                          EF ?__abi_make_type_id@@YAPE$AAVType@Platform@@AEBU__abi_type_descriptor@@@Z
                          45 ??BType@Platform@@SA?AVTypeName@Interop@Xaml@UI@Windows@@PE$AAV01@@Z
                          13 ??0FailureException@Platform@@QE$AAA@PE$AAVString@1@@Z
                          1E ??0NotImplementedException@Platform@@QE$AAA@XZ
                          56 ?AllocateException@Heap@Details@Platform@@SAPEAX_K0@Z
                          A0 ?GetType@Object@Platform@@QE$AAAPE$AAVType@2@XZ
                          54 ?Allocate@Heap@Details@Platform@@SAPEAX_K0@Z
                          E6 ?__abi_WinRTraiseNotImplementedException@@YAXXZ
                          E5 ?__abi_WinRTraiseInvalidCastException@@YAXXZ
                          E7 ?__abi_WinRTraiseNullReferenceException@@YAXXZ
                          E9 ?__abi_WinRTraiseOperationCanceledException@@YAXXZ
                          E3 ?__abi_WinRTraiseFailureException@@YAXXZ
                          DE ?__abi_WinRTraiseAccessDeniedException@@YAXXZ
                          EB ?__abi_WinRTraiseOutOfMemoryException@@YAXXZ
                          E4 ?__abi_WinRTraiseInvalidArgumentException@@YAXXZ
                          EA ?__abi_WinRTraiseOutOfBoundsException@@YAXXZ
                          E0 ?__abi_WinRTraiseChangedStateException@@YAXXZ
                          E1 ?__abi_WinRTraiseClassNotRegisteredException@@YAXXZ
                          EC ?__abi_WinRTraiseWrongThreadException@@YAXXZ
                          DC ?__abi_ObjectToString@__abi_details@@YAPE$AAVString@Platform@@PE$AAVObject@3@_N@Z
                          E2 ?__abi_WinRTraiseDisconnectedException@@YAXXZ
                          E8 ?__abi_WinRTraiseObjectDisposedException@@YAXXZ
                          AC ?GetTypeCode@Type@Platform@@SA?AW4TypeCode@2@PE$AAV12@@Z
                          DF ?__abi_WinRTraiseCOMException@@YAXJ@Z
                          7B ?EventSourceUninitialize@Details@Platform@@YAXPEAPEAX@Z
                          B3 ?ReCreateException@Exception@Platform@@SAPE$AAV12@H@Z
                          79 ?EventSourceInitialize@Details@Platform@@YAXPEAPEAX@Z
                          7A ?EventSourceRemove@Details@Platform@@YAXPEAPEAXPEAUEventLock@12@VEventRegistrationToken@Foundation@Windows@@@Z
                          75 ?EventSourceAdd@Details@Platform@@YA?AVEventRegistrationToken@Foundation@Windows@@PEAPEAXPEAUEventLock@12@PE$AAVDelegate@2@@Z
                          B9 ?ReleaseTarget@ControlBlock@Details@Platform@@AEAAXXZ
                          52 ?AlignedFree@Heap@Details@Platform@@SAXPEAX@Z
                          7D ?Free@Heap@Details@Platform@@SAXPEAX@Z
                          21 ??0Object@Platform@@QE$AAA@XZ
                          14 ??0FailureException@Platform@@QE$AAA@XZ

    api-ms-win-core-winrt-error-l1-1-0.dll
             14009D258 Import Address Table
             1400BD250 Import Name Table
                     0 time date stamp
                     0 Index of first forwarder reference

                           A SetRestrictedErrorInfo
                           2 RoFailFastWithErrorContext
                           4 RoOriginateError

    api-ms-win-core-winrt-error-l1-1-1.dll
             14009D278 Import Address Table
             1400BD270 Import Name Table
                     0 time date stamp
                     0 Index of first forwarder reference

                           7 RoReportUnhandledError

    api-ms-win-core-winrt-string-l1-1-0.dll
             14009D288 Import Address Table
             1400BD280 Import Name Table
                     0 time date stamp
                     0 Index of first forwarder reference

                           B WindowsCreateStringReference
                           C WindowsDeleteString
                           E WindowsDuplicateString
                           F WindowsGetStringLen
                          10 WindowsGetStringRawBuffer
                           A WindowsCreateString
                           9 WindowsConcatString
                          12 WindowsIsStringEmpty
                           8 WindowsCompareStringOrdinal

    api-ms-win-core-processthreads-l1-1-1.dll
             14009D118 Import Address Table
             1400BD110 Import Name Table
                     0 time date stamp
                     0 Index of first forwarder reference

                          32 IsProcessorFeaturePresent

    api-ms-win-core-profile-l1-1-0.dll
             14009D128 Import Address Table
             1400BD120 Import Name Table
                     0 time date stamp
                     0 Index of first forwarder reference

                           0 QueryPerformanceCounter

    api-ms-win-core-sysinfo-l1-1-0.dll
             14009D210 Import Address Table
             1400BD208 Import Name Table
                     0 time date stamp
                     0 Index of first forwarder reference

                          16 GetSystemTimeAsFileTime

    api-ms-win-core-interlocked-l1-1-0.dll
             14009D0A0 Import Address Table
             1400BD098 Import Name Table
                     0 time date stamp
                     0 Index of first forwarder reference

                           0 InitializeSListHead

    api-ms-win-core-util-l1-1-0.dll
             14009D248 Import Address Table
             1400BD240 Import Name Table
                     0 time date stamp
                     0 Index of first forwarder reference

                           1 DecodePointer

    api-ms-win-crt-string-l1-1-0.dll
             14009D468 Import Address Table
             1400BD460 Import Name Table
                     0 time date stamp
                     0 Index of first forwarder reference

                          83 memset
                          A3 wcslen

  Summary

        C000 .data
        9000 .pdata
       24000 .rdata
        3000 .reloc
        1000 .rsrc
       9C000 .text
