Microsoft (R) COFF/PE Dumper Version 14.29.30137.0
Copyright (C) Microsoft Corporation.  All rights reserved.


Dump of file C:\Windows\WinSxS\x86_microsoft-windows-b..re-bootmanager-pcat_31bf3856ad364e35_10.0.22621.1_none_c8a0e2b3ee914213\bootspaces.dll

File Type: DLL

  Section contains the following exports for bootspaces.dll

    00000000 characteristics
    2373D6EF time date stamp
        0.00 version
           1 ordinal base
           3 number of functions
           3 number of names

    ordinal hint RVA      name

          1    0 00004FAB SpaceBootDestroy
          2    1 00004F3A SpaceBootInitialize
          3    2 00004F45 SpaceBootReinitialize

  Image has the following dependencies:

    BootLib.dll

  Section contains the following imports:

    BootLib.dll
              10034000 Import Address Table
              100340D4 Import Name Table
                     0 time date stamp
                     0 Index of first forwarder reference

                   5F _purecall
                   29 BlockIoBuildPartitionIdentifier
                   20 BlPdAllocateData
                   17 BlGetFirmwareBootDevice
                   32 BlpDeviceGetEntry
                    0 BlDeviceClose
                   21 BlPdFreeData
                   27 BlUtlLoadSystemGuid
                   22 BlPdSaveData
                    5 BlDeviceOpen
                    B BlEnRegisterEventHandler
                   1B BlMmFreeHeap
                   39 BlpReplaceFirmwareBootDevice
                   23 BlReplaceBootDevice
                    4 BlDeviceGetParent
                   14 BlGetBootOption
                   26 BlUtlCopySmBiosTable
                    1 BlDeviceEnumerateDeviceClass
                   38 BlpPdQueryDataList
                   3A RtlAnsiStringToUnicodeString
                   54 RtlxAnsiStringToUnicodeSize
                   49 RtlInitAnsiString
                   18 BlMmAllocateHeap
                   19 BlMmAllocatePages
                   1C BlMmFreePages
                   2B BlockIoCreateDeviceEntry
                   28 BlockIoAddDevice
                    7 BlDeviceReadAtOffsetEx
                    3 BlDeviceGetInformation
                    2 BlDeviceFlush
                    9 BlDeviceWriteAtOffset
                   63 memmove
                   56 _alldiv
                   58 _allmul
                   59 _allrem
                   5A _allshl
                   5B _aulldiv
                   5D _aullrem
                   5E _aullshr
                   61 memcmp
                   62 memcpy
                   64 memset

  Summary

        1000 .data
        1000 .idata
        1000 .reloc
        1000 .rsrc
       29000 .text
        9000 PAGE
