Microsoft (R) COFF/PE Dumper Version 14.29.30137.0
Copyright (C) Microsoft Corporation.  All rights reserved.


Dump of file C:\Windows\WinSxS\x86_microsoft-windows-b..re-bootmanager-pcat_31bf3856ad364e35_10.0.22621.1_none_c8a0e2b3ee914213\bootuwf.dll

File Type: DLL

  Section contains the following exports for bootuwf.dll

    00000000 characteristics
    C9922106 time date stamp
        0.00 version
           1 ordinal base
           2 number of functions
           2 number of names

    ordinal hint RVA      name

          1    0 00001732 UwfDestroy
          2    1 0000173C UwfInitialize

  Image has the following dependencies:

    BootLib.dll

  Section contains the following imports:

    BootLib.dll
              10006000 Import Address Table
              1000609C Import Name Table
                     0 time date stamp
                     0 Index of first forwarder reference

                   18 BlMmAllocateHeap
                   1B BlMmFreeHeap
                   34 BlpDeviceRegisterDeviceClass
                    8 BlDeviceSetInformation
                   35 BlpIoRegisterDestroyRoutine
                    0 BlDeviceClose
                   33 BlpDeviceOpen
                    3 BlDeviceGetInformation
                   15 BlGetBootOptionBoolean
                   12 BlGetApplicationEntry
                   5F _purecall
                   20 BlPdAllocateData
                   37 BlpPdFreeDataList
                   38 BlpPdQueryDataList
                    7 BlDeviceReadAtOffsetEx
                    C BlFileClose
                    E BlFileOpen
                    F BlFileReadAtOffsetEx
                   19 BlMmAllocatePages
                   1C BlMmFreePages
                   63 memmove
                   56 _alldiv
                   58 _allmul
                   59 _allrem
                   5B _aulldiv
                   5D _aullrem
                   62 memcpy
                   64 memset

  Summary

        1000 .data
        1000 .idata
        1000 .reloc
        1000 .rsrc
        4000 .text
