Microsoft (R) COFF/PE Dumper Version 14.29.30137.0
Copyright (C) Microsoft Corporation.  All rights reserved.


Dump of file C:\Windows\WinSxS\amd64_dual_rtucx21x64.inf_31bf3856ad364e35_10.0.22621.1_none_792fd3ff01ea627e\rtucx21x64.sys

File Type: EXECUTABLE IMAGE

  Image has the following dependencies:

    NDIS.SYS
    ntoskrnl.exe
    WppRecorder.sys
    WDFLDR.SYS

  Section contains the following imports:

    NDIS.SYS
             14010A000 Import Address Table
             140125830 Import Name Table
                     0 time date stamp
                     0 Index of first forwarder reference

                         17B NdisMRemoveMiniport
                         181 NdisMSendNetBufferListsComplete
                         156 NdisMIndicateReceiveNetBufferLists
                         1C4 NdisReadConfiguration
                         221 NdisWriteConfiguration
                          43 NdisCloseConfiguration
                         1C8 NdisReadNetworkAddress
                         1AC NdisOpenConfigurationEx
                          AB NdisFreeNetBufferList
                          A6 NdisFreeMdl
                         188 NdisMSetMiniportAttributes
                         159 NdisMIndicateStatusEx
                          1E NdisAllocateNetBufferListPool
                          AD NdisFreeNetBufferListPool
                          1C NdisAllocateNetBufferList
                          1B NdisAllocateNetBufferAndNetBufferList
                          20 NdisAllocateNetBufferPool
                          AE NdisFreeNetBufferPool
                          1A NdisAllocateNetBuffer
                          AA NdisFreeNetBuffer
                          16 NdisAllocateMdl
                         155 NdisMIdleNotificationConfirm
                         153 NdisMIdleNotificationComplete
                         162 NdisMOidRequestComplete
                         17D NdisMResetComplete
                         1CC NdisRegisterDeviceEx
                          77 NdisDeregisterDeviceEx
                          BF NdisGetDeviceReservedExtension
                          D9 NdisGetVersion
                         1E5 NdisSetOptionalHandlers
                         14C NdisMGetDeviceProperty
                         177 NdisMRegisterMiniportDriver
                         141 NdisMDeregisterMiniportDriver

    ntoskrnl.exe
             14010A160 Import Address Table
             140125990 Import Name Table
                     0 time date stamp
                     0 Index of first forwarder reference

                         423 IoWMIOpenBlock
                         424 IoWMIQueryAllData
                         6AB ObfDereferenceObject
                         8CB RtlInitUnicodeString
                         4AF KeInitializeEvent
                         53A KeSetEvent
                         4B3 KeInitializeMutex
                         566 KeWaitForSingleObject
                         457 KeAcquireSpinLockRaiseToDpc
                         51A KeReleaseSpinLock
                         600 MmUnmapLockedPages
                          B5 ExAllocatePool3
                         435 IofCallDriver
                         340 IoFreeMdl
                         AE9 ZwClose
                         B3B ZwOpenKey
                         B79 ZwQueryValueKey
                         517 KeReleaseMutex
                         2E0 IoAllocateIrp
                         2E2 IoAllocateMdl
                         2F3 IoCancelIrp
                         33D IoFreeIrp
                         3D4 IoReuseIrp
                          C6 ExCreateCallback
                         469 KeBugCheckEx
                         166 ExUnregisterCallback
                         8C6 RtlInitString
                         436 IofCompleteRequest
                          8E EtwUnregister
                         357 IoGetDeviceProperty
                         5D2 MmMapLockedPagesSpecifyCache
                         2EF IoBuildPartialMdl
                         49D KeGetCurrentProcessorNumberEx
                         59D MmBuildMdlForNonPagedPool
                         961 RtlRandomEx
                         8C2 RtlInitAnsiString
                         7E9 RtlAnsiStringToUnicodeString
                         88D RtlFreeUnicodeString
                         5BC MmGetSystemRoutineAddress
                         428 IoWMIRegistrationControl
                          89 EtwRegister
                          8C EtwSetInformation
                         B4E ZwPowerInformation
                         9B6 RtlUnicodeToMultiByteN
                         7E7 RtlAnsiCharToUnicodeChar
                          94 EtwWriteTransfer
                         771 PsGetVersion
                          B7 ExAllocatePoolWithQuotaTag
                         B76 ZwQuerySystemInformation
                         4B7 KeInitializeSpinLock
                         9CF RtlVerifyVersionInfo
                         A81 VerSetConditionMask
                         120 ExRegisterCallback
                          E5 ExFreePoolWithTag
                         826 RtlCopyUnicodeString
                          6F DbgPrintEx
                         47B KeDelayExecutionThread
                         49B KeGetCurrentIrql
                         2F0 IoBuildSynchronousFsdRequest

    WppRecorder.sys
             14010A138 Import Address Table
             140125968 Import Name Table
                     0 time date stamp
                     0 Index of first forwarder reference

                           3 WppAutoLogStop
                           2 WppAutoLogStart
                           4 WppAutoLogTrace
                          10 imp_WppRecorderReplay

    WDFLDR.SYS
             14010A110 Import Address Table
             140125940 Import Name Table
                     0 time date stamp
                     0 Index of first forwarder reference

                           7 WdfVersionBindClass
                           8 WdfVersionUnbind
                           6 WdfVersionBind
                           9 WdfVersionUnbindClass

  Summary

        3000 .data
        2000 .pdata
        E000 .rdata
        2000 .reloc
        1000 .rsrc
      109000 .text
        2000 INIT
        8000 PAGE
