Microsoft (R) COFF/PE Dumper Version 14.29.30137.0
Copyright (C) Microsoft Corporation.  All rights reserved.


Dump of file C:\Windows\WinSxS\amd64_dual_netrtl64.inf_31bf3856ad364e35_10.0.22621.1_none_e0be6781954bb774\Rtnic64.sys

File Type: EXECUTABLE IMAGE

  Image has the following dependencies:

    ntoskrnl.exe
    HAL.dll
    NDIS.SYS

  Section contains the following imports:

    ntoskrnl.exe
                 1B148 Import Address Table
                 1F318 Import Name Table
                     0 time date stamp
                     0 Index of first forwarder reference

                         28A KeBugCheckEx
                         35D MmMapLockedPagesSpecifyCache
                          99 ExQueryDepthSList
                          CB ExpInterlockedPushEntrySList
                         1D0 IoFreeMdl
                          6C ExDeleteNPagedLookasideList
                         2E1 KeReleaseSpinLock
                         281 KeAcquireSpinLockRaiseToDpc

    HAL.dll
                 1B000 Import Address Table
                 1F1D0 Import Name Table
                     0 time date stamp
                     0 Index of first forwarder reference

                          47 KeStallExecutionProcessor

    NDIS.SYS
                 1B010 Import Address Table
                 1F1E0 Import Name Table
                     0 time date stamp
                     0 Index of first forwarder reference

                         193 NdisSetTimer
                         107 NdisMDeregisterAdapterShutdownHandler
                         11E NdisMInitializeTimer
                         133 NdisMRegisterIoPortRange
                         149 NdisMSynchronizeWithInterrupt
                         11A NdisMIndicateStatus
                          1C NdisAllocatePacket
                          1E NdisAllocatePacketPoolEx
                         113 NdisMFreeSharedMemory
                           9 NdisAllocateBuffer
                         11B NdisMIndicateStatusComplete
                         10C NdisMDeregisterIoPortRange
                          F0 NdisMCancelTimer
                         18A NdisSetEvent
                          DF NdisInitializeWrapper
                         134 NdisMRegisterMiniport
                         176 NdisReadPciSlotInformation
                         1A7 NdisWritePciSlotInformation
                         140 NdisMSetAttributesEx
                         121 NdisMMapIoSpace
                         1A5 NdisWriteErrorLogEntry
                         131 NdisMRegisterInterrupt
                          95 NdisFreePacket
                         10A NdisMDeregisterInterrupt
                         14D NdisMUnmapIoSpace
                          87 NdisFreeBufferPool
                          96 NdisFreePacketPool
                         129 NdisMQueryAdapterResources
                          8E NdisFreeMemory
                         110 NdisMFreeMapRegisters
                         11D NdisMInitializeScatterGatherDma
                         15D NdisOpenConfiguration
                          12 NdisAllocateMemoryWithTag
                         171 NdisReadConfiguration
                           A NdisAllocateBufferPool
                         175 NdisReadNetworkAddress
                          39 NdisCloseConfiguration
                          EE NdisMAllocateSharedMemory

  Summary

        1000 .data
        1000 .pdata
        1000 .rdata
        1000 .reloc
        1000 .rsrc
        A000 .text
        1000 INIT
        1000 PAGE
