Microsoft (R) COFF/PE Dumper Version 14.29.30137.0
Copyright (C) Microsoft Corporation.  All rights reserved.


Dump of file C:\Windows\WinSxS\amd64_microsoft-windows-hns-wfp-driver_31bf3856ad364e35_10.0.22621.1_none_0cda441d2cc9125d\hnswfpdriver.sys

File Type: EXECUTABLE IMAGE

  Image has the following dependencies:

    ntoskrnl.exe
    fwpkclnt.sys

  Section contains the following imports:

    ntoskrnl.exe
             1C00060B8 Import Address Table
             1C0006200 Import Name Table
                     0 time date stamp
                     0 Index of first forwarder reference

                         C4A _vsnprintf
                          71 DbgPrintEx
                          C1 ExAllocatePoolWithTag

    fwpkclnt.sys
             1C0006000 Import Address Table
             1C0006148 Import Name Table
                     0 time date stamp
                     0 Index of first forwarder reference

                          6E FwpmSubLayerAdd0
                          36 FwpmFilterEnum0
                          2B FwpmEngineClose0
                          1A FwpmCalloutAdd0
                          A2 FwpsApplyModifiedLayerData0
                          98 FwpsAcquireWritableLayerDataPointer0
                          DD FwpsRedirectHandleCreate0
                          E1 FwpsReleaseClassifyHandle0
                          D8 FwpsQueryConnectionRedirectState0
                          97 FwpsAcquireClassifyHandle0
                          A8 FwpsCalloutUnregisterById0
                          32 FwpmFilterCreateEnumHandle0
                          78 FwpmTransactionCommit0
                          A7 FwpsCalloutRegisterWithoutDevice0
                          70 FwpmSubLayerDeleteByKey0
                          C6 FwpsInjectionHandleDestroy0
                          2E FwpmEngineOpen0
                          C5 FwpsInjectionHandleCreate0
                          77 FwpmTransactionBegin0
                          34 FwpmFilterDeleteByKey0
                          76 FwpmTransactionAbort0
                          1C FwpmCalloutDeleteById0

  Summary

        1000 .data
        1000 .idata
        1000 .pdata
        1000 .rdata
        1000 .reloc
        1000 .rsrc
        2000 .text
        1000 GFIDS
        1000 INIT
        1000 fothk
