Microsoft (R) COFF/PE Dumper Version 14.29.30137.0
Copyright (C) Microsoft Corporation.  All rights reserved.


Dump of file C:\Windows\WinSxS\amd64_custommarshalers_b03f5f7f11d50a3a_4.0.15912.0_none_cf27ffb57a0e4ff7\CustomMarshalers.dll

File Type: DLL

  clr Header:

              48 cb
            2.05 runtime version
            80C0 [    FA7C] RVA [size] of MetaData Directory
              18 flags
                   Strong Name Signed
                   Native Entry Point
            3760 entry point (0000000180003760)
            7898 [     728] RVA [size] of Resources Directory
            7FC0 [     100] RVA [size] of StrongNameSignature Directory
               0 [       0] RVA [size] of CodeManagerTable Directory
           17B90 [     488] RVA [size] of VTableFixups Directory
               0 [       0] RVA [size] of ExportAddressTableJumps Directory
               0 [       0] RVA [size] of ManagedNativeHeader Directory


  Image has the following dependencies:

    VCRUNTIME140_CLR0400.dll
    ucrtbase_clr0400.dll
    KERNEL32.dll
    OLEAUT32.dll
    mscoree.dll

  Section contains the following imports:

    VCRUNTIME140_CLR0400.dll
             1800070A0 Import Address Table
             180018768 Import Name Table
                     0 time date stamp
                     0 Index of first forwarder reference

                          13 __FrameUnwindFilter
                           8 __C_specific_handler
                          1C __current_exception_context
                          1B __current_exception
                          25 __std_type_info_destroy_list
                          3E memset

    ucrtbase_clr0400.dll
             1800070E8 Import Address Table
             1800187B0 Import Name Table
                     0 time date stamp
                     0 Index of first forwarder reference

                          96 _crt_at_quick_exit
                          97 _crt_atexit
                          B9 _execute_onexit_table
                         27D _register_onexit_function
                         141 _initialize_onexit_table
                          7B _cexit
                          8B _configure_narrow_argv
                         396 abort
                         28A _seh_filter_dll
                         144 _initterm_e
                         143 _initterm
                         50B terminate
                         140 _initialize_narrow_environment

    KERNEL32.dll
             180007000 Import Address Table
             1800186C8 Import Name Table
                     0 time date stamp
                     0 Index of first forwarder reference

                         22E GetCurrentThreadId
                         372 InitializeSListHead
                         132 DisableThreadLibraryCalls
                         2FB GetSystemTimeAsFileTime
                         22A GetCurrentProcessId
                         56E Sleep
                         43F QueryPerformanceCounter
                         4C2 RtlLookupFunctionEntry
                         4C9 RtlVirtualUnwind
                         386 IsDebuggerPresent
                         5A0 UnhandledExceptionFilter
                         287 GetModuleHandleW
                         38B IsProcessorFeaturePresent
                         2DE GetStartupInfoW
                         55F SetUnhandledExceptionFilter
                         4BB RtlCaptureContext

    OLEAUT32.dll
             180007088 Import Address Table
             180018750 Import Name Table
                     0 time date stamp
                     0 Index of first forwarder reference

                             Ordinal     9
                             Ordinal     8

    mscoree.dll
             1800070D8 Import Address Table
             1800187A0 Import Name Table
                     0 time date stamp
                     0 Index of first forwarder reference

                          76 _CorDllMain

  Summary

        1000 .data
        1000 .nep
        1000 .pdata
       12000 .rdata
        1000 .reloc
        1000 .rsrc
        5000 .text
